MODEL 1
REMARK VINA RESULT:    -8.309      0.000      0.000
REMARK INTER + INTRA:         -13.030
REMARK INTER:                 -11.643
REMARK INTRA:                  -1.387
REMARK UNBOUND:                -1.564
REMARK  Name = agan1
REMARK  8 active torsions:
REMARK  status: ('A' for Active; 'I' for Inactive)
REMARK    1  A    between atoms: C1_1  and  C2_2
REMARK    2  A    between atoms: C11_17  and  C12_19
REMARK    3  A    between atoms: C13_20  and  N6_32
REMARK    4  A    between atoms: C15_22  and  N5_25
REMARK    5  A    between atoms: N5_25  and  S1_26
REMARK    6  A    between atoms: S1_26  and  C18_29
REMARK    7  A    between atoms: C18_29  and  C19_30
REMARK    8  A    between atoms: C19_30  and  O4_31
REMARK                            x       y       z     vdW  Elec       q    Type
REMARK                         _______ _______ _______ _____ _____    ______ ____
ROOT
ATOM      1  C12 UNL A   1      -1.239   0.020 -12.871  0.00  0.00    +0.058 A 
ATOM      2  C13 UNL A   1      -1.582   0.060 -14.248  0.00  0.00    +0.044 A 
ATOM      3  C14 UNL A   1      -0.559  -0.128 -15.200  0.00  0.00    +0.048 A 
ATOM      4  C15 UNL A   1       0.762  -0.357 -14.809  0.00  0.00    +0.050 A 
ATOM      5  C16 UNL A   1       1.093  -0.414 -13.463  0.00  0.00    +0.025 A 
ATOM      6  C17 UNL A   1       0.100  -0.219 -12.502  0.00  0.00    +0.017 A 
ENDROOT
BRANCH   1  23
ATOM      7  C1  UNL A   1      -5.788   0.783  -7.706  0.00  0.00    +0.066 C 
ATOM      8  C2  UNL A   1      -5.521  -0.119  -8.872  0.00  0.00    +0.045 A 
ATOM      9  C3  UNL A   1      -4.439   0.107  -9.690  0.00  0.00    +0.067 A 
ATOM     10  C4  UNL A   1      -4.275  -0.775 -10.728  0.00  0.00    +0.131 A 
ATOM     11  N1  UNL A   1      -5.117  -1.804 -10.941  0.00  0.00    -0.199 NA
ATOM     12  C5  UNL A   1      -6.153  -1.967 -10.106  0.00  0.00    +0.220 A 
ATOM     13  N2  UNL A   1      -6.374  -1.142  -9.071  0.00  0.00    -0.220 NA
ATOM     14  N3  UNL A   1      -7.023  -3.055 -10.300  0.00  0.00    -0.299 N 
ATOM     15  C6  UNL A   1      -6.984  -3.594 -11.661  0.00  0.00    +0.114 C 
ATOM     16  C7  UNL A   1      -7.773  -4.889 -11.733  0.00  0.00    +0.094 C 
ATOM     17  C8  UNL A   1      -9.164  -4.676 -11.185  0.00  0.00    +0.252 C 
ATOM     18  C9  UNL A   1      -9.163  -4.121  -9.780  0.00  0.00    +0.094 C 
ATOM     19  C10 UNL A   1      -8.356  -2.834  -9.730  0.00  0.00    +0.114 C 
ATOM     20  F1  UNL A   1      -9.838  -5.856 -11.201  0.00  0.00    -0.206 F 
ATOM     21  F2  UNL A   1      -9.851  -3.839 -12.005  0.00  0.00    -0.206 F 
ATOM     22  N4  UNL A   1      -3.236  -0.694 -11.654  0.00  0.00    -0.266 N 
ATOM     23  C11 UNL A   1      -2.213   0.216 -11.737  0.00  0.00    +0.251 C 
ATOM     24  O1  UNL A   1      -2.046   1.160 -10.969  0.00  0.00    -0.270 OA
ATOM     25  H13 UNL A   1      -3.253  -1.424 -12.364  0.00  0.00    +0.157 HD
ENDBRANCH   1  23
BRANCH   2  26
ATOM     26  N6  UNL A   1      -2.928   0.263 -14.666  0.00  0.00    -0.329 N 
ATOM     27  C20 UNL A   1      -3.139   1.604 -15.271  0.00  0.00    +0.105 C 
ATOM     28  C21 UNL A   1      -4.638   1.825 -15.506  0.00  0.00    +0.026 C 
ATOM     29  C22 UNL A   1      -5.221   0.704 -16.346  0.00  0.00    -0.026 C 
ATOM     30  C23 UNL A   1      -5.323   0.891 -17.844  0.00  0.00    +0.007 C 
ATOM     31  C24 UNL A   1      -6.567   0.926 -16.999  0.00  0.00    +0.007 C 
ATOM     32  C25 UNL A   1      -4.906  -0.677 -15.801  0.00  0.00    +0.026 C 
ATOM     33  C26 UNL A   1      -3.401  -0.836 -15.553  0.00  0.00    +0.105 C 
ENDBRANCH   2  26
BRANCH   4  34
ATOM     34  N5  UNL A   1       1.771  -0.598 -15.786  0.00  0.00    -0.221 N 
ATOM     35  H17 UNL A   1       2.628  -1.025 -15.426  0.00  0.00    +0.173 HD
BRANCH  34  36
ATOM     36  S1  UNL A   1       2.194   0.704 -16.789  0.00  0.00    +0.045 S 
ATOM     37  O2  UNL A   1       2.267   1.848 -15.903  0.00  0.00    -0.155 OA
ATOM     38  O3  UNL A   1       1.347   0.718 -17.959  0.00  0.00    -0.155 OA
BRANCH  36  39
ATOM     39  C18 UNL A   1       3.858   0.269 -17.250  0.00  0.00    +0.216 C 
BRANCH  39  40
ATOM     40  C19 UNL A   1       3.996   0.267 -18.756  0.00  0.00    +0.180 C 
BRANCH  40  41
ATOM     41  O4  UNL A   1       3.735   1.572 -19.268  0.00  0.00    -0.393 OA
ATOM     42  H22 UNL A   1       2.770   1.671 -19.356  0.00  0.00    +0.209 HD
ENDBRANCH  40  41
ENDBRANCH  39  40
ENDBRANCH  36  39
ENDBRANCH  34  36
ENDBRANCH   4  34
TORSDOF 7
ENDMDL
MODEL 2
REMARK VINA RESULT:    -8.306      0.586      0.988
REMARK INTER + INTRA:         -13.026
REMARK INTER:                 -11.462
REMARK INTRA:                  -1.564
REMARK UNBOUND:                -1.564
REMARK  Name = agan1
REMARK  8 active torsions:
REMARK  status: ('A' for Active; 'I' for Inactive)
REMARK    1  A    between atoms: C1_1  and  C2_2
REMARK    2  A    between atoms: C11_17  and  C12_19
REMARK    3  A    between atoms: C13_20  and  N6_32
REMARK    4  A    between atoms: C15_22  and  N5_25
REMARK    5  A    between atoms: N5_25  and  S1_26
REMARK    6  A    between atoms: S1_26  and  C18_29
REMARK    7  A    between atoms: C18_29  and  C19_30
REMARK    8  A    between atoms: C19_30  and  O4_31
REMARK                            x       y       z     vdW  Elec       q    Type
REMARK                         _______ _______ _______ _____ _____    ______ ____
ROOT
ATOM      1  C12 UNL A   1      -1.236   0.096 -12.865  0.00  0.00    +0.058 A 
ATOM      2  C13 UNL A   1      -1.537   0.273 -14.241  0.00  0.00    +0.044 A 
ATOM      3  C14 UNL A   1      -0.504   0.084 -15.183  0.00  0.00    +0.048 A 
ATOM      4  C15 UNL A   1       0.784  -0.277 -14.784  0.00  0.00    +0.050 A 
ATOM      5  C16 UNL A   1       1.072  -0.468 -13.441  0.00  0.00    +0.025 A 
ATOM      6  C17 UNL A   1       0.071  -0.274 -12.488  0.00  0.00    +0.017 A 
ENDROOT
BRANCH   1  23
ATOM      7  C1  UNL A   1      -5.844   0.779  -7.741  0.00  0.00    +0.066 C 
ATOM      8  C2  UNL A   1      -5.549  -0.119  -8.904  0.00  0.00    +0.045 A 
ATOM      9  C3  UNL A   1      -4.465   0.127  -9.712  0.00  0.00    +0.067 A 
ATOM     10  C4  UNL A   1      -4.276  -0.754 -10.748  0.00  0.00    +0.131 A 
ATOM     11  N1  UNL A   1      -5.096  -1.798 -10.967  0.00  0.00    -0.199 NA
ATOM     12  C5  UNL A   1      -6.136  -1.980 -10.141  0.00  0.00    +0.220 A 
ATOM     13  N2  UNL A   1      -6.381  -1.157  -9.109  0.00  0.00    -0.220 NA
ATOM     14  N3  UNL A   1      -6.984  -3.084 -10.341  0.00  0.00    -0.299 N 
ATOM     15  C6  UNL A   1      -6.923  -3.623 -11.701  0.00  0.00    +0.114 C 
ATOM     16  C7  UNL A   1      -7.686  -4.933 -11.778  0.00  0.00    +0.094 C 
ATOM     17  C8  UNL A   1      -9.086  -4.746 -11.243  0.00  0.00    +0.252 C 
ATOM     18  C9  UNL A   1      -9.108  -4.189  -9.839  0.00  0.00    +0.094 C 
ATOM     19  C10 UNL A   1      -8.325  -2.888  -9.784  0.00  0.00    +0.114 C 
ATOM     20  F1  UNL A   1      -9.737  -5.938 -11.263  0.00  0.00    -0.206 F 
ATOM     21  F2  UNL A   1      -9.782  -3.923 -12.070  0.00  0.00    -0.206 F 
ATOM     22  N4  UNL A   1      -3.230  -0.654 -11.665  0.00  0.00    -0.266 N 
ATOM     23  C11 UNL A   1      -2.224   0.275 -11.740  0.00  0.00    +0.251 C 
ATOM     24  O1  UNL A   1      -2.081   1.223 -10.971  0.00  0.00    -0.270 OA
ATOM     25  H13 UNL A   1      -3.227  -1.385 -12.374  0.00  0.00    +0.157 HD
ENDBRANCH   1  23
BRANCH   2  26
ATOM     26  N6  UNL A   1      -2.851   0.612 -14.670  0.00  0.00    -0.329 N 
ATOM     27  C20 UNL A   1      -2.896   1.911 -15.391  0.00  0.00    +0.105 C 
ATOM     28  C21 UNL A   1      -4.358   2.304 -15.638  0.00  0.00    +0.026 C 
ATOM     29  C22 UNL A   1      -5.094   1.200 -16.372  0.00  0.00    -0.026 C 
ATOM     30  C23 UNL A   1      -5.196   1.265 -17.881  0.00  0.00    +0.007 C 
ATOM     31  C24 UNL A   1      -6.410   1.537 -17.037  0.00  0.00    +0.007 C 
ATOM     32  C25 UNL A   1      -4.953  -0.158 -15.708  0.00  0.00    +0.026 C 
ATOM     33  C26 UNL A   1      -3.477  -0.489 -15.453  0.00  0.00    +0.105 C 
ENDBRANCH   2  26
BRANCH   4  34
ATOM     34  N5  UNL A   1       1.798  -0.516 -15.756  0.00  0.00    -0.221 N 
ATOM     35  H17 UNL A   1       2.633  -0.991 -15.402  0.00  0.00    +0.173 HD
BRANCH  34  36
ATOM     36  S1  UNL A   1       2.288   0.809 -16.696  0.00  0.00    +0.045 S 
ATOM     37  O2  UNL A   1       2.061   1.967 -15.855  0.00  0.00    -0.155 OA
ATOM     38  O3  UNL A   1       1.703   0.718 -18.014  0.00  0.00    -0.155 OA
BRANCH  36  39
ATOM     39  C18 UNL A   1       4.046   0.545 -16.792  0.00  0.00    +0.216 C 
BRANCH  39  40
ATOM     40  C19 UNL A   1       4.737   1.218 -15.627  0.00  0.00    +0.180 C 
BRANCH  40  41
ATOM     41  O4  UNL A   1       4.079   0.874 -14.410  0.00  0.00    -0.393 OA
ATOM     42  H22 UNL A   1       4.434   0.019 -14.110  0.00  0.00    +0.209 HD
ENDBRANCH  40  41
ENDBRANCH  39  40
ENDBRANCH  36  39
ENDBRANCH  34  36
ENDBRANCH   4  34
TORSDOF 7
ENDMDL
MODEL 3
REMARK VINA RESULT:    -7.666      2.859      4.338
REMARK INTER + INTRA:         -12.143
REMARK INTER:                 -10.874
REMARK INTRA:                  -1.269
REMARK UNBOUND:                -1.564
REMARK  Name = agan1
REMARK  8 active torsions:
REMARK  status: ('A' for Active; 'I' for Inactive)
REMARK    1  A    between atoms: C1_1  and  C2_2
REMARK    2  A    between atoms: C11_17  and  C12_19
REMARK    3  A    between atoms: C13_20  and  N6_32
REMARK    4  A    between atoms: C15_22  and  N5_25
REMARK    5  A    between atoms: N5_25  and  S1_26
REMARK    6  A    between atoms: S1_26  and  C18_29
REMARK    7  A    between atoms: C18_29  and  C19_30
REMARK    8  A    between atoms: C19_30  and  O4_31
REMARK                            x       y       z     vdW  Elec       q    Type
REMARK                         _______ _______ _______ _____ _____    ______ ____
ROOT
ATOM      1  C12 UNL A   1      -0.664  -1.259 -15.399  0.00  0.00    +0.058 A 
ATOM      2  C13 UNL A   1      -0.714   0.154 -15.520  0.00  0.00    +0.044 A 
ATOM      3  C14 UNL A   1       0.479   0.885 -15.336  0.00  0.00    +0.048 A 
ATOM      4  C15 UNL A   1       1.686   0.244 -15.050  0.00  0.00    +0.050 A 
ATOM      5  C16 UNL A   1       1.736  -1.139 -14.950  0.00  0.00    +0.025 A 
ATOM      6  C17 UNL A   1       0.567  -1.884 -15.115  0.00  0.00    +0.017 A 
ENDROOT
BRANCH   1  23
ATOM      7  C1  UNL A   1      -6.176  -5.414 -15.965  0.00  0.00    +0.066 C 
ATOM      8  C2  UNL A   1      -5.571  -4.439 -15.001  0.00  0.00    +0.045 A 
ATOM      9  C3  UNL A   1      -4.394  -3.799 -15.309  0.00  0.00    +0.067 A 
ATOM     10  C4  UNL A   1      -3.922  -2.922 -14.365  0.00  0.00    +0.131 A 
ATOM     11  N1  UNL A   1      -4.564  -2.695 -13.204  0.00  0.00    -0.199 NA
ATOM     12  C5  UNL A   1      -5.708  -3.355 -12.966  0.00  0.00    +0.220 A 
ATOM     13  N2  UNL A   1      -6.226  -4.226 -13.844  0.00  0.00    -0.220 NA
ATOM     14  N3  UNL A   1      -6.404  -3.104 -11.770  0.00  0.00    -0.299 N 
ATOM     15  C6  UNL A   1      -5.564  -2.529 -10.718  0.00  0.00    +0.114 C 
ATOM     16  C7  UNL A   1      -6.423  -2.086  -9.548  0.00  0.00    +0.094 C 
ATOM     17  C8  UNL A   1      -7.301  -3.226  -9.092  0.00  0.00    +0.252 C 
ATOM     18  C9  UNL A   1      -8.153  -3.792 -10.203  0.00  0.00    +0.094 C 
ATOM     19  C10 UNL A   1      -7.273  -4.215 -11.368  0.00  0.00    +0.114 C 
ATOM     20  F1  UNL A   1      -8.105  -2.799  -8.084  0.00  0.00    -0.206 F 
ATOM     21  F2  UNL A   1      -6.528  -4.211  -8.564  0.00  0.00    -0.206 F 
ATOM     22  N4  UNL A   1      -2.743  -2.190 -14.511  0.00  0.00    -0.266 N 
ATOM     23  C11 UNL A   1      -1.851  -2.176 -15.552  0.00  0.00    +0.251 C 
ATOM     24  O1  UNL A   1      -1.952  -2.849 -16.575  0.00  0.00    -0.270 OA
ATOM     25  H13 UNL A   1      -2.531  -1.582 -13.722  0.00  0.00    +0.157 HD
ENDBRANCH   1  23
BRANCH   2  26
ATOM     26  N6  UNL A   1      -1.928   0.825 -15.839  0.00  0.00    -0.329 N 
ATOM     27  C20 UNL A   1      -2.592   1.400 -14.642  0.00  0.00    +0.105 C 
ATOM     28  C21 UNL A   1      -3.981   1.921 -15.032  0.00  0.00    +0.026 C 
ATOM     29  C22 UNL A   1      -3.881   2.909 -16.178  0.00  0.00    -0.026 C 
ATOM     30  C23 UNL A   1      -3.808   4.388 -15.865  0.00  0.00    +0.007 C 
ATOM     31  C24 UNL A   1      -5.066   3.809 -16.452  0.00  0.00    +0.007 C 
ATOM     32  C25 UNL A   1      -3.097   2.374 -17.363  0.00  0.00    +0.026 C 
ATOM     33  C26 UNL A   1      -1.732   1.836 -16.916  0.00  0.00    +0.105 C 
ENDBRANCH   2  26
BRANCH   4  34
ATOM     34  N5  UNL A   1       2.889   0.996 -14.922  0.00  0.00    -0.221 N 
ATOM     35  H17 UNL A   1       3.719   0.555 -15.325  0.00  0.00    +0.173 HD
BRANCH  34  36
ATOM     36  S1  UNL A   1       3.276   1.564 -13.371  0.00  0.00    +0.045 S 
ATOM     37  O2  UNL A   1       2.562   0.689 -12.464  0.00  0.00    -0.155 OA
ATOM     38  O3  UNL A   1       3.103   2.998 -13.316  0.00  0.00    -0.155 OA
BRANCH  36  39
ATOM     39  C18 UNL A   1       5.007   1.158 -13.267  0.00  0.00    +0.216 C 
BRANCH  39  40
ATOM     40  C19 UNL A   1       5.551   1.546 -11.910  0.00  0.00    +0.180 C 
BRANCH  40  41
ATOM     41  O4  UNL A   1       4.723   1.004 -10.883  0.00  0.00    -0.393 OA
ATOM     42  H22 UNL A   1       3.901   1.525 -10.856  0.00  0.00    +0.209 HD
ENDBRANCH  40  41
ENDBRANCH  39  40
ENDBRANCH  36  39
ENDBRANCH  34  36
ENDBRANCH   4  34
TORSDOF 7
ENDMDL
MODEL 4
REMARK VINA RESULT:    -7.563      2.967      4.288
REMARK INTER + INTRA:         -12.000
REMARK INTER:                 -11.044
REMARK INTRA:                  -0.957
REMARK UNBOUND:                -1.564
REMARK  Name = agan1
REMARK  8 active torsions:
REMARK  status: ('A' for Active; 'I' for Inactive)
REMARK    1  A    between atoms: C1_1  and  C2_2
REMARK    2  A    between atoms: C11_17  and  C12_19
REMARK    3  A    between atoms: C13_20  and  N6_32
REMARK    4  A    between atoms: C15_22  and  N5_25
REMARK    5  A    between atoms: N5_25  and  S1_26
REMARK    6  A    between atoms: S1_26  and  C18_29
REMARK    7  A    between atoms: C18_29  and  C19_30
REMARK    8  A    between atoms: C19_30  and  O4_31
REMARK                            x       y       z     vdW  Elec       q    Type
REMARK                         _______ _______ _______ _____ _____    ______ ____
ROOT
ATOM      1  C12 UNL A   1      -1.086  -1.904 -15.360  0.00  0.00    +0.058 A 
ATOM      2  C13 UNL A   1      -0.960  -1.158 -16.560  0.00  0.00    +0.044 A 
ATOM      3  C14 UNL A   1       0.305  -0.627 -16.890  0.00  0.00    +0.048 A 
ATOM      4  C15 UNL A   1       1.414  -0.833 -16.068  0.00  0.00    +0.050 A 
ATOM      5  C16 UNL A   1       1.293  -1.578 -14.904  0.00  0.00    +0.025 A 
ATOM      6  C17 UNL A   1       0.049  -2.103 -14.549  0.00  0.00    +0.017 A 
ENDROOT
BRANCH   1  23
ATOM      7  C1  UNL A   1      -6.988  -4.625 -12.965  0.00  0.00    +0.066 C 
ATOM      8  C2  UNL A   1      -6.008  -3.541 -12.632  0.00  0.00    +0.045 A 
ATOM      9  C3  UNL A   1      -4.906  -3.333 -13.427  0.00  0.00    +0.067 A 
ATOM     10  C4  UNL A   1      -4.071  -2.315 -13.042  0.00  0.00    +0.131 A 
ATOM     11  N1  UNL A   1      -4.307  -1.558 -11.955  0.00  0.00    -0.199 NA
ATOM     12  C5  UNL A   1      -5.401  -1.814 -11.222  0.00  0.00    +0.220 A 
ATOM     13  N2  UNL A   1      -6.260  -2.795 -11.539  0.00  0.00    -0.220 NA
ATOM     14  N3  UNL A   1      -5.675  -1.012 -10.100  0.00  0.00    -0.299 N 
ATOM     15  C6  UNL A   1      -4.497  -0.314  -9.583  0.00  0.00    +0.114 C 
ATOM     16  C7  UNL A   1      -4.909   0.693  -8.524  0.00  0.00    +0.094 C 
ATOM     17  C8  UNL A   1      -5.746   0.014  -7.467  0.00  0.00    +0.252 C 
ATOM     18  C9  UNL A   1      -6.952  -0.694  -8.037  0.00  0.00    +0.094 C 
ATOM     19  C10 UNL A   1      -6.516  -1.684  -9.105  0.00  0.00    +0.114 C 
ATOM     20  F1  UNL A   1      -6.156   0.937  -6.558  0.00  0.00    -0.206 F 
ATOM     21  F2  UNL A   1      -4.979  -0.874  -6.781  0.00  0.00    -0.206 F 
ATOM     22  N4  UNL A   1      -2.908  -1.969 -13.730  0.00  0.00    -0.266 N 
ATOM     23  C11 UNL A   1      -2.370  -2.522 -14.863  0.00  0.00    +0.251 C 
ATOM     24  O1  UNL A   1      -2.851  -3.467 -15.483  0.00  0.00    -0.270 OA
ATOM     25  H13 UNL A   1      -2.397  -1.189 -13.318  0.00  0.00    +0.157 HD
ENDBRANCH   1  23
BRANCH   2  26
ATOM     26  N6  UNL A   1      -2.072  -0.962 -17.427  0.00  0.00    -0.329 N 
ATOM     27  C20 UNL A   1      -2.764   0.330 -17.181  0.00  0.00    +0.105 C 
ATOM     28  C21 UNL A   1      -4.059   0.377 -18.001  0.00  0.00    +0.026 C 
ATOM     29  C22 UNL A   1      -3.772   0.136 -19.471  0.00  0.00    -0.026 C 
ATOM     30  C23 UNL A   1      -3.574   1.327 -20.383  0.00  0.00    +0.007 C 
ATOM     31  C24 UNL A   1      -4.835   0.515 -20.479  0.00  0.00    +0.007 C 
ATOM     32  C25 UNL A   1      -2.959  -1.121 -19.724  0.00  0.00    +0.026 C 
ATOM     33  C26 UNL A   1      -1.694  -1.135 -18.857  0.00  0.00    +0.105 C 
ENDBRANCH   2  26
BRANCH   4  34
ATOM     34  N5  UNL A   1       2.694  -0.335 -16.447  0.00  0.00    -0.221 N 
ATOM     35  H17 UNL A   1       3.434  -1.040 -16.499  0.00  0.00    +0.173 HD
BRANCH  34  36
ATOM     36  S1  UNL A   1       3.281   1.004 -15.587  0.00  0.00    +0.045 S 
ATOM     37  O2  UNL A   1       2.220   1.988 -15.658  0.00  0.00    -0.155 OA
ATOM     38  O3  UNL A   1       4.622   1.320 -16.026  0.00  0.00    -0.155 OA
BRANCH  36  39
ATOM     39  C18 UNL A   1       3.321   0.369 -13.925  0.00  0.00    +0.216 C 
BRANCH  39  40
ATOM     40  C19 UNL A   1       3.130   1.495 -12.933  0.00  0.00    +0.180 C 
BRANCH  40  41
ATOM     41  O4  UNL A   1       3.665   2.705 -13.466  0.00  0.00    -0.393 OA
ATOM     42  H22 UNL A   1       4.636   2.635 -13.451  0.00  0.00    +0.209 HD
ENDBRANCH  40  41
ENDBRANCH  39  40
ENDBRANCH  36  39
ENDBRANCH  34  36
ENDBRANCH   4  34
TORSDOF 7
ENDMDL
MODEL 5
REMARK VINA RESULT:    -7.552      5.235     10.171
REMARK INTER + INTRA:         -11.986
REMARK INTER:                 -10.811
REMARK INTRA:                  -1.175
REMARK UNBOUND:                -1.564
REMARK  Name = agan1
REMARK  8 active torsions:
REMARK  status: ('A' for Active; 'I' for Inactive)
REMARK    1  A    between atoms: C1_1  and  C2_2
REMARK    2  A    between atoms: C11_17  and  C12_19
REMARK    3  A    between atoms: C13_20  and  N6_32
REMARK    4  A    between atoms: C15_22  and  N5_25
REMARK    5  A    between atoms: N5_25  and  S1_26
REMARK    6  A    between atoms: S1_26  and  C18_29
REMARK    7  A    between atoms: C18_29  and  C19_30
REMARK    8  A    between atoms: C19_30  and  O4_31
REMARK                            x       y       z     vdW  Elec       q    Type
REMARK                         _______ _______ _______ _____ _____    ______ ____
ROOT
ATOM      1  C12 UNL A   1      -5.834  -0.869  -9.978  0.00  0.00    +0.058 A 
ATOM      2  C13 UNL A   1      -6.415  -2.103  -9.584  0.00  0.00    +0.044 A 
ATOM      3  C14 UNL A   1      -6.535  -2.377  -8.206  0.00  0.00    +0.048 A 
ATOM      4  C15 UNL A   1      -6.105  -1.461  -7.244  0.00  0.00    +0.050 A 
ATOM      5  C16 UNL A   1      -5.555  -0.247  -7.631  0.00  0.00    +0.025 A 
ATOM      6  C17 UNL A   1      -5.413   0.042  -8.989  0.00  0.00    +0.017 A 
ENDROOT
BRANCH   1  23
ATOM      7  C1  UNL A   1      -4.711   1.089 -16.526  0.00  0.00    +0.066 C 
ATOM      8  C2  UNL A   1      -3.944   0.678 -15.306  0.00  0.00    +0.045 A 
ATOM      9  C3  UNL A   1      -4.607   0.353 -14.146  0.00  0.00    +0.067 A 
ATOM     10  C4  UNL A   1      -3.818  -0.014 -13.085  0.00  0.00    +0.131 A 
ATOM     11  N1  UNL A   1      -2.476  -0.058 -13.164  0.00  0.00    -0.199 NA
ATOM     12  C5  UNL A   1      -1.891   0.273 -14.326  0.00  0.00    +0.220 A 
ATOM     13  N2  UNL A   1      -2.601   0.642 -15.402  0.00  0.00    -0.220 NA
ATOM     14  N3  UNL A   1      -0.491   0.203 -14.430  0.00  0.00    -0.299 N 
ATOM     15  C6  UNL A   1       0.192   0.250 -13.135  0.00  0.00    +0.114 C 
ATOM     16  C7  UNL A   1       1.669  -0.050 -13.312  0.00  0.00    +0.094 C 
ATOM     17  C8  UNL A   1       2.258   0.861 -14.362  0.00  0.00    +0.252 C 
ATOM     18  C9  UNL A   1       1.529   0.784 -15.683  0.00  0.00    +0.094 C 
ATOM     19  C10 UNL A   1       0.051   1.073 -15.478  0.00  0.00    +0.114 C 
ATOM     20  F1  UNL A   1       3.565   0.541 -14.552  0.00  0.00    -0.206 F 
ATOM     21  F2  UNL A   1       2.246   2.142 -13.910  0.00  0.00    -0.206 F 
ATOM     22  N4  UNL A   1      -4.323  -0.372 -11.835  0.00  0.00    -0.266 N 
ATOM     23  C11 UNL A   1      -5.624  -0.437 -11.408  0.00  0.00    +0.251 C 
ATOM     24  O1  UNL A   1      -6.606  -0.168 -12.096  0.00  0.00    -0.270 OA
ATOM     25  H13 UNL A   1      -3.608  -0.621 -11.154  0.00  0.00    +0.157 HD
ENDBRANCH   1  23
BRANCH   2  26
ATOM     26  N6  UNL A   1      -6.886  -3.038 -10.549  0.00  0.00    -0.329 N 
ATOM     27  C20 UNL A   1      -6.526  -4.438 -10.206  0.00  0.00    +0.105 C 
ATOM     28  C21 UNL A   1      -6.883  -5.356 -11.382  0.00  0.00    +0.026 C 
ATOM     29  C22 UNL A   1      -8.344  -5.201 -11.759  0.00  0.00    -0.026 C 
ATOM     30  C23 UNL A   1      -9.358  -6.158 -11.170  0.00  0.00    +0.007 C 
ATOM     31  C24 UNL A   1      -8.977  -6.272 -12.620  0.00  0.00    +0.007 C 
ATOM     32  C25 UNL A   1      -8.752  -3.758 -11.994  0.00  0.00    +0.026 C 
ATOM     33  C26 UNL A   1      -8.344  -2.877 -10.806  0.00  0.00    +0.105 C 
ENDBRANCH   2  26
BRANCH   4  34
ATOM     34  N5  UNL A   1      -6.285  -1.734  -5.858  0.00  0.00    -0.221 N 
ATOM     35  H17 UNL A   1      -6.611  -0.941  -5.299  0.00  0.00    +0.173 HD
BRANCH  34  36
ATOM     36  S1  UNL A   1      -4.991  -2.471  -5.046  0.00  0.00    +0.045 S 
ATOM     37  O2  UNL A   1      -5.349  -2.414  -3.643  0.00  0.00    -0.155 OA
ATOM     38  O3  UNL A   1      -3.739  -1.924  -5.519  0.00  0.00    -0.155 OA
BRANCH  36  39
ATOM     39  C18 UNL A   1      -5.154  -4.162  -5.579  0.00  0.00    +0.216 C 
BRANCH  39  40
ATOM     40  C19 UNL A   1      -4.920  -5.099  -4.415  0.00  0.00    +0.180 C 
BRANCH  40  41
ATOM     41  O4  UNL A   1      -3.814  -4.642  -3.641  0.00  0.00    -0.393 OA
ATOM     42  H22 UNL A   1      -3.419  -5.415  -3.199  0.00  0.00    +0.209 HD
ENDBRANCH  40  41
ENDBRANCH  39  40
ENDBRANCH  36  39
ENDBRANCH  34  36
ENDBRANCH   4  34
TORSDOF 7
ENDMDL
MODEL 6
REMARK VINA RESULT:    -7.480      2.584      3.256
REMARK INTER + INTRA:         -11.886
REMARK INTER:                 -10.771
REMARK INTRA:                  -1.115
REMARK UNBOUND:                -1.564
REMARK  Name = agan1
REMARK  8 active torsions:
REMARK  status: ('A' for Active; 'I' for Inactive)
REMARK    1  A    between atoms: C1_1  and  C2_2
REMARK    2  A    between atoms: C11_17  and  C12_19
REMARK    3  A    between atoms: C13_20  and  N6_32
REMARK    4  A    between atoms: C15_22  and  N5_25
REMARK    5  A    between atoms: N5_25  and  S1_26
REMARK    6  A    between atoms: S1_26  and  C18_29
REMARK    7  A    between atoms: C18_29  and  C19_30
REMARK    8  A    between atoms: C19_30  and  O4_31
REMARK                            x       y       z     vdW  Elec       q    Type
REMARK                         _______ _______ _______ _____ _____    ______ ____
ROOT
ATOM      1  C12 UNL A   1      -1.058  -0.938 -13.113  0.00  0.00    +0.058 A 
ATOM      2  C13 UNL A   1      -0.866  -1.144 -14.504  0.00  0.00    +0.044 A 
ATOM      3  C14 UNL A   1       0.407  -0.878 -15.051  0.00  0.00    +0.048 A 
ATOM      4  C15 UNL A   1       1.461  -0.431 -14.252  0.00  0.00    +0.050 A 
ATOM      5  C16 UNL A   1       1.276  -0.248 -12.889  0.00  0.00    +0.025 A 
ATOM      6  C17 UNL A   1       0.022  -0.492 -12.326  0.00  0.00    +0.017 A 
ENDROOT
BRANCH   1  23
ATOM      7  C1  UNL A   1      -7.044  -2.117  -9.835  0.00  0.00    +0.066 C 
ATOM      8  C2  UNL A   1      -6.153  -2.756 -10.857  0.00  0.00    +0.045 A 
ATOM      9  C3  UNL A   1      -4.986  -2.139 -11.241  0.00  0.00    +0.067 A 
ATOM     10  C4  UNL A   1      -4.236  -2.803 -12.180  0.00  0.00    +0.131 A 
ATOM     11  N1  UNL A   1      -4.611  -3.987 -12.697  0.00  0.00    -0.199 NA
ATOM     12  C5  UNL A   1      -5.762  -4.534 -12.279  0.00  0.00    +0.220 A 
ATOM     13  N2  UNL A   1      -6.544  -3.939 -11.366  0.00  0.00    -0.220 NA
ATOM     14  N3  UNL A   1      -6.150  -5.785 -12.790  0.00  0.00    -0.299 N 
ATOM     15  C6  UNL A   1      -5.510  -6.115 -14.065  0.00  0.00    +0.114 C 
ATOM     16  C7  UNL A   1      -5.803  -7.557 -14.438  0.00  0.00    +0.094 C 
ATOM     17  C8  UNL A   1      -7.292  -7.806 -14.403  0.00  0.00    +0.252 C 
ATOM     18  C9  UNL A   1      -7.915  -7.456 -13.073  0.00  0.00    +0.094 C 
ATOM     19  C10 UNL A   1      -7.596  -6.013 -12.714  0.00  0.00    +0.114 C 
ATOM     20  F1  UNL A   1      -7.535  -9.114 -14.682  0.00  0.00    -0.206 F 
ATOM     21  F2  UNL A   1      -7.895  -7.093 -15.390  0.00  0.00    -0.206 F 
ATOM     22  N4  UNL A   1      -3.028  -2.322 -12.684  0.00  0.00    -0.266 N 
ATOM     23  C11 UNL A   1      -2.360  -1.163 -12.384  0.00  0.00    +0.251 C 
ATOM     24  O1  UNL A   1      -2.744  -0.315 -11.582  0.00  0.00    -0.270 OA
ATOM     25  H13 UNL A   1      -2.593  -2.932 -13.373  0.00  0.00    +0.157 HD
ENDBRANCH   1  23
BRANCH   2  26
ATOM     26  N6  UNL A   1      -1.919  -1.627 -15.331  0.00  0.00    -0.329 N 
ATOM     27  C20 UNL A   1      -2.313  -0.650 -16.378  0.00  0.00    +0.105 C 
ATOM     28  C21 UNL A   1      -3.577  -1.150 -17.090  0.00  0.00    +0.026 C 
ATOM     29  C22 UNL A   1      -3.365  -2.547 -17.641  0.00  0.00    -0.026 C 
ATOM     30  C23 UNL A   1      -2.925  -2.707 -19.079  0.00  0.00    +0.007 C 
ATOM     31  C24 UNL A   1      -4.333  -3.058 -18.685  0.00  0.00    +0.007 C 
ATOM     32  C25 UNL A   1      -2.845  -3.527 -16.604  0.00  0.00    +0.026 C 
ATOM     33  C26 UNL A   1      -1.603  -2.966 -15.900  0.00  0.00    +0.105 C 
ENDBRANCH   2  26
BRANCH   4  34
ATOM     34  N5  UNL A   1       2.752  -0.220 -14.814  0.00  0.00    -0.221 N 
ATOM     35  H17 UNL A   1       3.429  -0.967 -14.637  0.00  0.00    +0.173 HD
BRANCH  34  36
ATOM     36  S1  UNL A   1       3.496   1.271 -14.492  0.00  0.00    +0.045 S 
ATOM     37  O2  UNL A   1       4.240   1.058 -13.267  0.00  0.00    -0.155 OA
ATOM     38  O3  UNL A   1       2.526   2.337 -14.600  0.00  0.00    -0.155 OA
BRANCH  36  39
ATOM     39  C18 UNL A   1       4.668   1.379 -15.827  0.00  0.00    +0.216 C 
BRANCH  39  40
ATOM     40  C19 UNL A   1       4.140   0.650 -17.043  0.00  0.00    +0.180 C 
BRANCH  40  41
ATOM     41  O4  UNL A   1       4.822  -0.592 -17.196  0.00  0.00    -0.393 OA
ATOM     42  H22 UNL A   1       4.333  -1.266 -16.691  0.00  0.00    +0.209 HD
ENDBRANCH  40  41
ENDBRANCH  39  40
ENDBRANCH  36  39
ENDBRANCH  34  36
ENDBRANCH   4  34
TORSDOF 7
ENDMDL
MODEL 7
REMARK VINA RESULT:    -7.447      5.461     10.352
REMARK INTER + INTRA:         -11.840
REMARK INTER:                 -10.619
REMARK INTRA:                  -1.221
REMARK UNBOUND:                -1.564
REMARK  Name = agan1
REMARK  8 active torsions:
REMARK  status: ('A' for Active; 'I' for Inactive)
REMARK    1  A    between atoms: C1_1  and  C2_2
REMARK    2  A    between atoms: C11_17  and  C12_19
REMARK    3  A    between atoms: C13_20  and  N6_32
REMARK    4  A    between atoms: C15_22  and  N5_25
REMARK    5  A    between atoms: N5_25  and  S1_26
REMARK    6  A    between atoms: S1_26  and  C18_29
REMARK    7  A    between atoms: C18_29  and  C19_30
REMARK    8  A    between atoms: C19_30  and  O4_31
REMARK                            x       y       z     vdW  Elec       q    Type
REMARK                         _______ _______ _______ _____ _____    ______ ____
ROOT
ATOM      1  C12 UNL A   1      -4.471  -2.512 -13.399  0.00  0.00    +0.058 A 
ATOM      2  C13 UNL A   1      -5.104  -3.775 -13.261  0.00  0.00    +0.044 A 
ATOM      3  C14 UNL A   1      -5.752  -4.071 -12.043  0.00  0.00    +0.048 A 
ATOM      4  C15 UNL A   1      -5.783  -3.149 -10.996  0.00  0.00    +0.050 A 
ATOM      5  C16 UNL A   1      -5.180  -1.908 -11.139  0.00  0.00    +0.025 A 
ATOM      6  C17 UNL A   1      -4.521  -1.596 -12.329  0.00  0.00    +0.017 A 
ENDROOT
BRANCH   1  23
ATOM      7  C1  UNL A   1      -0.927  -0.386 -18.955  0.00  0.00    +0.066 C 
ATOM      8  C2  UNL A   1      -0.752  -0.537 -17.475  0.00  0.00    +0.045 A 
ATOM      9  C3  UNL A   1      -1.777  -1.031 -16.703  0.00  0.00    +0.067 A 
ATOM     10  C4  UNL A   1      -1.520  -1.136 -15.359  0.00  0.00    +0.131 A 
ATOM     11  N1  UNL A   1      -0.339  -0.781 -14.819  0.00  0.00    -0.199 NA
ATOM     12  C5  UNL A   1       0.618  -0.306 -15.630  0.00  0.00    +0.220 A 
ATOM     13  N2  UNL A   1       0.435  -0.176 -16.952  0.00  0.00    -0.220 NA
ATOM     14  N3  UNL A   1       1.867   0.040 -15.082  0.00  0.00    -0.299 N 
ATOM     15  C6  UNL A   1       1.818   0.302 -13.643  0.00  0.00    +0.114 C 
ATOM     16  C7  UNL A   1       3.224   0.449 -13.090  0.00  0.00    +0.094 C 
ATOM     17  C8  UNL A   1       3.985   1.482 -13.887  0.00  0.00    +0.252 C 
ATOM     18  C9  UNL A   1       4.014   1.177 -15.366  0.00  0.00    +0.094 C 
ATOM     19  C10 UNL A   1       2.597   1.019 -15.893  0.00  0.00    +0.114 C 
ATOM     20  F1  UNL A   1       5.258   1.561 -13.420  0.00  0.00    -0.206 F 
ATOM     21  F2  UNL A   1       3.433   2.707 -13.686  0.00  0.00    -0.206 F 
ATOM     22  N4  UNL A   1      -2.445  -1.612 -14.430  0.00  0.00    -0.266 N 
ATOM     23  C11 UNL A   1      -3.728  -2.054 -14.629  0.00  0.00    +0.251 C 
ATOM     24  O1  UNL A   1      -4.299  -2.095 -15.715  0.00  0.00    -0.270 OA
ATOM     25  H13 UNL A   1      -2.102  -1.630 -13.472  0.00  0.00    +0.157 HD
ENDBRANCH   1  23
BRANCH   2  26
ATOM     26  N6  UNL A   1      -5.109  -4.718 -14.328  0.00  0.00    -0.329 N 
ATOM     27  C20 UNL A   1      -4.692  -6.074 -13.889  0.00  0.00    +0.105 C 
ATOM     28  C21 UNL A   1      -4.524  -6.977 -15.118  0.00  0.00    +0.026 C 
ATOM     29  C22 UNL A   1      -5.793  -6.994 -15.948  0.00  0.00    -0.026 C 
ATOM     30  C23 UNL A   1      -6.802  -8.098 -15.721  0.00  0.00    +0.007 C 
ATOM     31  C24 UNL A   1      -5.965  -8.096 -16.969  0.00  0.00    +0.007 C 
ATOM     32  C25 UNL A   1      -6.296  -5.605 -16.300  0.00  0.00    +0.026 C 
ATOM     33  C26 UNL A   1      -6.415  -4.734 -15.043  0.00  0.00    +0.105 C 
ENDBRANCH   2  26
BRANCH   4  34
ATOM     34  N5  UNL A   1      -6.489  -3.446  -9.795  0.00  0.00    -0.221 N 
ATOM     35  H17 UNL A   1      -6.502  -4.436  -9.534  0.00  0.00    +0.173 HD
BRANCH  34  36
ATOM     36  S1  UNL A   1      -8.064  -2.830  -9.656  0.00  0.00    +0.045 S 
ATOM     37  O2  UNL A   1      -8.673  -3.601  -8.592  0.00  0.00    -0.155 OA
ATOM     38  O3  UNL A   1      -8.675  -2.748 -10.963  0.00  0.00    -0.155 OA
BRANCH  36  39
ATOM     39  C18 UNL A   1      -7.750  -1.193  -9.030  0.00  0.00    +0.216 C 
BRANCH  39  40
ATOM     40  C19 UNL A   1      -7.522  -1.243  -7.536  0.00  0.00    +0.180 C 
BRANCH  40  41
ATOM     41  O4  UNL A   1      -6.584  -2.271  -7.224  0.00  0.00    -0.393 OA
ATOM     42  H22 UNL A   1      -5.730  -2.027  -7.622  0.00  0.00    +0.209 HD
ENDBRANCH  40  41
ENDBRANCH  39  40
ENDBRANCH  36  39
ENDBRANCH  34  36
ENDBRANCH   4  34
TORSDOF 7
ENDMDL
MODEL 8
REMARK VINA RESULT:    -7.412      3.137      3.920
REMARK INTER + INTRA:         -11.793
REMARK INTER:                 -10.110
REMARK INTRA:                  -1.683
REMARK UNBOUND:                -1.564
REMARK  Name = agan1
REMARK  8 active torsions:
REMARK  status: ('A' for Active; 'I' for Inactive)
REMARK    1  A    between atoms: C1_1  and  C2_2
REMARK    2  A    between atoms: C11_17  and  C12_19
REMARK    3  A    between atoms: C13_20  and  N6_32
REMARK    4  A    between atoms: C15_22  and  N5_25
REMARK    5  A    between atoms: N5_25  and  S1_26
REMARK    6  A    between atoms: S1_26  and  C18_29
REMARK    7  A    between atoms: C18_29  and  C19_30
REMARK    8  A    between atoms: C19_30  and  O4_31
REMARK                            x       y       z     vdW  Elec       q    Type
REMARK                         _______ _______ _______ _____ _____    ______ ____
ROOT
ATOM      1  C12 UNL A   1      -1.799  -0.377 -12.909  0.00  0.00    +0.058 A 
ATOM      2  C13 UNL A   1      -1.886   0.360 -14.118  0.00  0.00    +0.044 A 
ATOM      3  C14 UNL A   1      -0.742   1.056 -14.563  0.00  0.00    +0.048 A 
ATOM      4  C15 UNL A   1       0.453   1.021 -13.843  0.00  0.00    +0.050 A 
ATOM      5  C16 UNL A   1       0.542   0.285 -12.670  0.00  0.00    +0.025 A 
ATOM      6  C17 UNL A   1      -0.580  -0.402 -12.203  0.00  0.00    +0.017 A 
ENDROOT
BRANCH   1  23
ATOM      7  C1  UNL A   1      -6.987  -4.086 -10.208  0.00  0.00    +0.066 C 
ATOM      8  C2  UNL A   1      -6.022  -4.132 -11.355  0.00  0.00    +0.045 A 
ATOM      9  C3  UNL A   1      -5.102  -3.125 -11.527  0.00  0.00    +0.067 A 
ATOM     10  C4  UNL A   1      -4.260  -3.258 -12.602  0.00  0.00    +0.131 A 
ATOM     11  N1  UNL A   1      -4.322  -4.306 -13.443  0.00  0.00    -0.199 NA
ATOM     12  C5  UNL A   1      -5.244  -5.254 -13.217  0.00  0.00    +0.220 A 
ATOM     13  N2  UNL A   1      -6.100  -5.187 -12.187  0.00  0.00    -0.220 NA
ATOM     14  N3  UNL A   1      -5.300  -6.370 -14.071  0.00  0.00    -0.299 N 
ATOM     15  C6  UNL A   1      -4.679  -6.135 -15.377  0.00  0.00    +0.114 C 
ATOM     16  C7  UNL A   1      -4.581  -7.437 -16.151  0.00  0.00    +0.094 C 
ATOM     17  C8  UNL A   1      -5.935  -8.102 -16.214  0.00  0.00    +0.252 C 
ATOM     18  C9  UNL A   1      -6.542  -8.329 -14.850  0.00  0.00    +0.094 C 
ATOM     19  C10 UNL A   1      -6.616  -7.015 -14.089  0.00  0.00    +0.114 C 
ATOM     20  F1  UNL A   1      -5.821  -9.292 -16.858  0.00  0.00    -0.206 F 
ATOM     21  F2  UNL A   1      -6.777  -7.346 -16.967  0.00  0.00    -0.206 F 
ATOM     22  N4  UNL A   1      -3.271  -2.330 -12.928  0.00  0.00    -0.266 N 
ATOM     23  C11 UNL A   1      -2.934  -1.160 -12.297  0.00  0.00    +0.251 C 
ATOM     24  O1  UNL A   1      -3.487  -0.715 -11.294  0.00  0.00    -0.270 OA
ATOM     25  H13 UNL A   1      -2.728  -2.573 -13.754  0.00  0.00    +0.157 HD
ENDBRANCH   1  23
BRANCH   2  26
ATOM     26  N6  UNL A   1      -3.087   0.385 -14.883  0.00  0.00    -0.329 N 
ATOM     27  C20 UNL A   1      -3.540   1.768 -15.183  0.00  0.00    +0.105 C 
ATOM     28  C21 UNL A   1      -4.933   1.717 -15.823  0.00  0.00    +0.026 C 
ATOM     29  C22 UNL A   1      -4.929   0.822 -17.048  0.00  0.00    -0.026 C 
ATOM     30  C23 UNL A   1      -4.718   1.447 -18.410  0.00  0.00    +0.007 C 
ATOM     31  C24 UNL A   1      -6.079   0.939 -18.023  0.00  0.00    +0.007 C 
ATOM     32  C25 UNL A   1      -4.353  -0.557 -16.779  0.00  0.00    +0.026 C 
ATOM     33  C26 UNL A   1      -2.977  -0.451 -16.110  0.00  0.00    +0.105 C 
ENDBRANCH   2  26
BRANCH   4  34
ATOM     34  N5  UNL A   1       1.612   1.686 -14.336  0.00  0.00    -0.221 N 
ATOM     35  H17 UNL A   1       1.443   2.617 -14.727  0.00  0.00    +0.173 HD
BRANCH  34  36
ATOM     36  S1  UNL A   1       2.596   0.818 -15.412  0.00  0.00    +0.045 S 
ATOM     37  O2  UNL A   1       2.311   1.382 -16.716  0.00  0.00    -0.155 OA
ATOM     38  O3  UNL A   1       2.461  -0.599 -15.166  0.00  0.00    -0.155 OA
BRANCH  36  39
ATOM     39  C18 UNL A   1       4.220   1.366 -14.928  0.00  0.00    +0.216 C 
BRANCH  39  40
ATOM     40  C19 UNL A   1       4.268   1.592 -13.434  0.00  0.00    +0.180 C 
BRANCH  40  41
ATOM     41  O4  UNL A   1       3.899   0.396 -12.751  0.00  0.00    -0.393 OA
ATOM     42  H22 UNL A   1       2.951   0.241 -12.912  0.00  0.00    +0.209 HD
ENDBRANCH  40  41
ENDBRANCH  39  40
ENDBRANCH  36  39
ENDBRANCH  34  36
ENDBRANCH   4  34
TORSDOF 7
ENDMDL
