MODEL 1
REMARK VINA RESULT:    -7.335      0.000      0.000
REMARK INTER + INTRA:         -11.486
REMARK INTER:                 -10.122
REMARK INTRA:                  -1.363
REMARK UNBOUND:                -1.363
REMARK  Name = agan9
REMARK  8 active torsions:
REMARK  status: ('A' for Active; 'I' for Inactive)
REMARK    1  A    between atoms: C4_4  and  N2_15
REMARK    2  A    between atoms: C6_6  and  N1_7
REMARK    3  A    between atoms: N2_15  and  S1_16
REMARK    4  A    between atoms: S1_16  and  C14_17
REMARK    5  A    between atoms: C14_17  and  C15_18
REMARK    6  A    between atoms: C15_18  and  O1_19
REMARK    7  A    between atoms: N5_26  and  C18_27
REMARK    8  A    between atoms: C22_31  and  C24_33
REMARK                            x       y       z     vdW  Elec       q    Type
REMARK                         _______ _______ _______ _____ _____    ______ ____
ROOT
ATOM      1  C1  UNL A   1      -3.027  -0.329 -12.422  0.00  0.00    +0.061 A 
ATOM      2  C2  UNL A   1      -2.180   0.667 -11.907  0.00  0.00    +0.080 A 
ATOM      3  C3  UNL A   1      -1.245   1.272 -12.732  0.00  0.00    +0.053 A 
ATOM      4  C4  UNL A   1      -1.125   0.947 -14.081  0.00  0.00    +0.051 A 
ATOM      5  C5  UNL A   1      -1.925  -0.063 -14.597  0.00  0.00    +0.048 A 
ATOM      6  C6  UNL A   1      -2.897  -0.699 -13.810  0.00  0.00    +0.044 A 
ATOM      7  N3  UNL A   1      -2.212   1.085 -10.640  0.00  0.00    -0.235 NA
ATOM      8  C16 UNL A   1      -3.118   0.517  -9.843  0.00  0.00    +0.224 A 
ATOM      9  N4  UNL A   1      -3.985  -0.430 -10.194  0.00  0.00    -0.220 NA
ATOM     10  C17 UNL A   1      -3.950  -0.852 -11.472  0.00  0.00    +0.136 A 
ATOM     11  N5  UNL A   1      -4.830  -1.881 -11.884  0.00  0.00    -0.299 N 
ATOM     12  H22 UNL A   1      -4.887  -1.883 -12.902  0.00  0.00    +0.154 HD
ENDROOT
BRANCH   6  13
ATOM     13  N1  UNL A   1      -3.728  -1.697 -14.361  0.00  0.00    -0.329 N 
ATOM     14  C7  UNL A   1      -4.732  -1.278 -15.366  0.00  0.00    +0.105 C 
ATOM     15  C8  UNL A   1      -4.275  -1.440 -16.820  0.00  0.00    +0.026 C 
ATOM     16  C9  UNL A   1      -3.617  -2.782 -17.055  0.00  0.00    -0.026 C 
ATOM     17  C10 UNL A   1      -2.524  -3.095 -16.056  0.00  0.00    +0.026 C 
ATOM     18  C11 UNL A   1      -3.054  -2.991 -14.625  0.00  0.00    +0.105 C 
ATOM     19  C12 UNL A   1      -3.432  -3.243 -18.482  0.00  0.00    +0.007 C 
ATOM     20  C13 UNL A   1      -4.450  -3.920 -17.607  0.00  0.00    +0.007 C 
ENDBRANCH   6  13
BRANCH  11  21
ATOM     21  C18 UNL A   1      -5.845  -2.605 -11.241  0.00  0.00    +0.033 A 
ATOM     22  C19 UNL A   1      -5.917  -3.999 -11.214  0.00  0.00    +0.023 A 
ATOM     23  C20 UNL A   1      -6.982  -4.657 -10.590  0.00  0.00    +0.002 A 
ATOM     24  C21 UNL A   1      -8.003  -3.928  -9.988  0.00  0.00    +0.003 A 
ATOM     25  C22 UNL A   1      -7.967  -2.533 -10.001  0.00  0.00    -0.049 A 
ATOM     26  C23 UNL A   1      -6.898  -1.888 -10.643  0.00  0.00    +0.026 A 
ATOM     27  C24 UNL A   1      -9.082  -1.735  -9.396  0.00  0.00    +0.044 C 
ENDBRANCH  11  21
BRANCH   4  28
ATOM     28  N2  UNL A   1      -0.067   1.565 -14.822  0.00  0.00    -0.220 N 
ATOM     29  H15 UNL A   1      -0.345   2.145 -15.616  0.00  0.00    +0.173 HD
BRANCH  28  30
ATOM     30  S1  UNL A   1       1.379   0.774 -15.159  0.00  0.00    +0.045 S 
ATOM     31  O2  UNL A   1       1.123  -0.576 -15.609  0.00  0.00    -0.155 OA
ATOM     32  O3  UNL A   1       2.140   1.701 -15.968  0.00  0.00    -0.155 OA
BRANCH  30  33
ATOM     33  C14 UNL A   1       2.137   0.725 -13.549  0.00  0.00    +0.216 C 
BRANCH  33  34
ATOM     34  C15 UNL A   1       3.089   1.890 -13.390  0.00  0.00    +0.180 C 
BRANCH  34  35
ATOM     35  O1  UNL A   1       2.342   3.105 -13.397  0.00  0.00    -0.393 OA
ATOM     36  H20 UNL A   1       1.672   3.032 -12.695  0.00  0.00    +0.209 HD
ENDBRANCH  34  35
ENDBRANCH  33  34
ENDBRANCH  30  33
ENDBRANCH  28  30
ENDBRANCH   4  28
TORSDOF 7
ENDMDL
MODEL 2
REMARK VINA RESULT:    -7.200      1.365      1.780
REMARK INTER + INTRA:         -11.299
REMARK INTER:                  -9.624
REMARK INTRA:                  -1.675
REMARK UNBOUND:                -1.363
REMARK  Name = agan9
REMARK  8 active torsions:
REMARK  status: ('A' for Active; 'I' for Inactive)
REMARK    1  A    between atoms: C4_4  and  N2_15
REMARK    2  A    between atoms: C6_6  and  N1_7
REMARK    3  A    between atoms: N2_15  and  S1_16
REMARK    4  A    between atoms: S1_16  and  C14_17
REMARK    5  A    between atoms: C14_17  and  C15_18
REMARK    6  A    between atoms: C15_18  and  O1_19
REMARK    7  A    between atoms: N5_26  and  C18_27
REMARK    8  A    between atoms: C22_31  and  C24_33
REMARK                            x       y       z     vdW  Elec       q    Type
REMARK                         _______ _______ _______ _____ _____    ______ ____
ROOT
ATOM      1  C1  UNL A   1      -3.519  -0.276 -11.919  0.00  0.00    +0.061 A 
ATOM      2  C2  UNL A   1      -2.404   0.458 -11.484  0.00  0.00    +0.080 A 
ATOM      3  C3  UNL A   1      -1.338   0.668 -12.345  0.00  0.00    +0.053 A 
ATOM      4  C4  UNL A   1      -1.338   0.196 -13.655  0.00  0.00    +0.051 A 
ATOM      5  C5  UNL A   1      -2.413  -0.567 -14.088  0.00  0.00    +0.048 A 
ATOM      6  C6  UNL A   1      -3.524  -0.799 -13.263  0.00  0.00    +0.044 A 
ATOM      7  N3  UNL A   1      -2.293   0.986 -10.263  0.00  0.00    -0.235 NA
ATOM      8  C16 UNL A   1      -3.321   0.799  -9.433  0.00  0.00    +0.224 A 
ATOM      9  N4  UNL A   1      -4.439   0.132  -9.709  0.00  0.00    -0.220 NA
ATOM     10  C17 UNL A   1      -4.548  -0.400 -10.942  0.00  0.00    +0.136 A 
ATOM     11  N5  UNL A   1      -5.704  -1.147 -11.271  0.00  0.00    -0.299 N 
ATOM     12  H22 UNL A   1      -5.771  -1.229 -12.286  0.00  0.00    +0.154 HD
ENDROOT
BRANCH   6  13
ATOM     13  N1  UNL A   1      -4.626  -1.545 -13.733  0.00  0.00    -0.329 N 
ATOM     14  C7  UNL A   1      -5.476  -0.930 -14.780  0.00  0.00    +0.105 C 
ATOM     15  C8  UNL A   1      -5.113  -1.345 -16.210  0.00  0.00    +0.026 C 
ATOM     16  C9  UNL A   1      -4.892  -2.838 -16.322  0.00  0.00    -0.026 C 
ATOM     17  C10 UNL A   1      -3.927  -3.378 -15.290  0.00  0.00    +0.026 C 
ATOM     18  C11 UNL A   1      -4.375  -2.998 -13.878  0.00  0.00    +0.105 C 
ATOM     19  C12 UNL A   1      -4.879  -3.453 -17.703  0.00  0.00    +0.007 C 
ATOM     20  C13 UNL A   1      -6.038  -3.715 -16.782  0.00  0.00    +0.007 C 
ENDBRANCH   6  13
BRANCH  11  21
ATOM     21  C18 UNL A   1      -6.885  -1.462 -10.582  0.00  0.00    +0.033 A 
ATOM     22  C19 UNL A   1      -7.067  -2.625  -9.831  0.00  0.00    +0.023 A 
ATOM     23  C20 UNL A   1      -8.287  -2.899  -9.204  0.00  0.00    +0.002 A 
ATOM     24  C21 UNL A   1      -9.353  -2.012  -9.325  0.00  0.00    +0.003 A 
ATOM     25  C22 UNL A   1      -9.208  -0.843 -10.072  0.00  0.00    -0.049 A 
ATOM     26  C23 UNL A   1      -7.982  -0.590 -10.707  0.00  0.00    +0.026 A 
ATOM     27  C24 UNL A   1     -10.362   0.099 -10.247  0.00  0.00    +0.044 C 
ENDBRANCH  11  21
BRANCH   4  28
ATOM     28  N2  UNL A   1      -0.150   0.389 -14.431  0.00  0.00    -0.220 N 
ATOM     29  H15 UNL A   1      -0.278   0.519 -15.436  0.00  0.00    +0.173 HD
BRANCH  28  30
ATOM     30  S1  UNL A   1       1.270  -0.462 -14.132  0.00  0.00    +0.045 S 
ATOM     31  O2  UNL A   1       1.953   0.084 -12.980  0.00  0.00    -0.155 OA
ATOM     32  O3  UNL A   1       0.894  -1.859 -14.185  0.00  0.00    -0.155 OA
BRANCH  30  33
ATOM     33  C14 UNL A   1       2.212  -0.106 -15.600  0.00  0.00    +0.216 C 
BRANCH  33  34
ATOM     34  C15 UNL A   1       1.879   1.282 -16.103  0.00  0.00    +0.180 C 
BRANCH  34  35
ATOM     35  O1  UNL A   1       2.031   2.212 -15.034  0.00  0.00    -0.393 OA
ATOM     36  H20 UNL A   1       1.205   2.195 -14.519  0.00  0.00    +0.209 HD
ENDBRANCH  34  35
ENDBRANCH  33  34
ENDBRANCH  30  33
ENDBRANCH  28  30
ENDBRANCH   4  28
TORSDOF 7
ENDMDL
MODEL 3
REMARK VINA RESULT:    -7.191      0.629      1.328
REMARK INTER + INTRA:         -11.288
REMARK INTER:                 -10.099
REMARK INTRA:                  -1.188
REMARK UNBOUND:                -1.363
REMARK  Name = agan9
REMARK  8 active torsions:
REMARK  status: ('A' for Active; 'I' for Inactive)
REMARK    1  A    between atoms: C4_4  and  N2_15
REMARK    2  A    between atoms: C6_6  and  N1_7
REMARK    3  A    between atoms: N2_15  and  S1_16
REMARK    4  A    between atoms: S1_16  and  C14_17
REMARK    5  A    between atoms: C14_17  and  C15_18
REMARK    6  A    between atoms: C15_18  and  O1_19
REMARK    7  A    between atoms: N5_26  and  C18_27
REMARK    8  A    between atoms: C22_31  and  C24_33
REMARK                            x       y       z     vdW  Elec       q    Type
REMARK                         _______ _______ _______ _____ _____    ______ ____
ROOT
ATOM      1  C1  UNL A   1      -2.888  -0.304 -12.756  0.00  0.00    +0.061 A 
ATOM      2  C2  UNL A   1      -1.971   0.579 -12.161  0.00  0.00    +0.080 A 
ATOM      3  C3  UNL A   1      -0.936   1.110 -12.915  0.00  0.00    +0.053 A 
ATOM      4  C4  UNL A   1      -0.779   0.820 -14.268  0.00  0.00    +0.051 A 
ATOM      5  C5  UNL A   1      -1.650  -0.082 -14.862  0.00  0.00    +0.048 A 
ATOM      6  C6  UNL A   1      -2.723  -0.639 -14.150  0.00  0.00    +0.044 A 
ATOM      7  N3  UNL A   1      -2.028   0.956 -10.882  0.00  0.00    -0.235 NA
ATOM      8  C16 UNL A   1      -3.029   0.459 -10.154  0.00  0.00    +0.224 A 
ATOM      9  N4  UNL A   1      -3.969  -0.379 -10.584  0.00  0.00    -0.220 NA
ATOM     10  C17 UNL A   1      -3.910  -0.759 -11.875  0.00  0.00    +0.136 A 
ATOM     11  N5  UNL A   1      -4.868  -1.676 -12.370  0.00  0.00    -0.299 N 
ATOM     12  H22 UNL A   1      -4.870  -1.638 -13.389  0.00  0.00    +0.154 HD
ENDROOT
BRANCH   6  13
ATOM     13  N1  UNL A   1      -3.622  -1.525 -14.780  0.00  0.00    -0.329 N 
ATOM     14  C7  UNL A   1      -4.418  -1.005 -15.916  0.00  0.00    +0.105 C 
ATOM     15  C8  UNL A   1      -3.814  -1.294 -17.294  0.00  0.00    +0.026 C 
ATOM     16  C9  UNL A   1      -3.344  -2.728 -17.411  0.00  0.00    -0.026 C 
ATOM     17  C10 UNL A   1      -2.445  -3.157 -16.272  0.00  0.00    +0.026 C 
ATOM     18  C11 UNL A   1      -3.126  -2.914 -14.925  0.00  0.00    +0.105 C 
ATOM     19  C12 UNL A   1      -3.056  -3.272 -18.792  0.00  0.00    +0.007 C 
ATOM     20  C13 UNL A   1      -4.266  -3.752 -18.040  0.00  0.00    +0.007 C 
ENDBRANCH   6  13
BRANCH  11  21
ATOM     21  C18 UNL A   1      -5.985  -2.310 -11.807  0.00  0.00    +0.033 A 
ATOM     22  C19 UNL A   1      -7.054  -1.633 -11.216  0.00  0.00    +0.023 A 
ATOM     23  C20 UNL A   1      -8.119  -2.330 -10.634  0.00  0.00    +0.002 A 
ATOM     24  C21 UNL A   1      -8.127  -3.722 -10.626  0.00  0.00    +0.003 A 
ATOM     25  C22 UNL A   1      -7.073  -4.430 -11.203  0.00  0.00    -0.049 A 
ATOM     26  C23 UNL A   1      -6.005  -3.716 -11.770  0.00  0.00    +0.026 A 
ATOM     27  C24 UNL A   1      -7.047  -5.928 -11.162  0.00  0.00    +0.044 C 
ENDBRANCH  11  21
BRANCH   4  28
ATOM     28  N2  UNL A   1       0.375   1.348 -14.931  0.00  0.00    -0.220 N 
ATOM     29  H15 UNL A   1       0.206   1.886 -15.783  0.00  0.00    +0.173 HD
BRANCH  28  30
ATOM     30  S1  UNL A   1       1.812   0.483 -15.066  0.00  0.00    +0.045 S 
ATOM     31  O2  UNL A   1       1.540  -0.898 -15.400  0.00  0.00    -0.155 OA
ATOM     32  O3  UNL A   1       2.670   1.299 -15.897  0.00  0.00    -0.155 OA
BRANCH  30  33
ATOM     33  C14 UNL A   1       2.437   0.575 -13.401  0.00  0.00    +0.216 C 
BRANCH  33  34
ATOM     34  C15 UNL A   1       3.777   1.278 -13.391  0.00  0.00    +0.180 C 
BRANCH  34  35
ATOM     35  O1  UNL A   1       3.562   2.688 -13.392  0.00  0.00    -0.393 OA
ATOM     36  H20 UNL A   1       4.438   3.111 -13.411  0.00  0.00    +0.209 HD
ENDBRANCH  34  35
ENDBRANCH  33  34
ENDBRANCH  30  33
ENDBRANCH  28  30
ENDBRANCH   4  28
TORSDOF 7
ENDMDL
MODEL 4
REMARK VINA RESULT:    -7.128      1.791      2.340
REMARK INTER + INTRA:         -11.200
REMARK INTER:                  -9.642
REMARK INTRA:                  -1.558
REMARK UNBOUND:                -1.363
REMARK  Name = agan9
REMARK  8 active torsions:
REMARK  status: ('A' for Active; 'I' for Inactive)
REMARK    1  A    between atoms: C4_4  and  N2_15
REMARK    2  A    between atoms: C6_6  and  N1_7
REMARK    3  A    between atoms: N2_15  and  S1_16
REMARK    4  A    between atoms: S1_16  and  C14_17
REMARK    5  A    between atoms: C14_17  and  C15_18
REMARK    6  A    between atoms: C15_18  and  O1_19
REMARK    7  A    between atoms: N5_26  and  C18_27
REMARK    8  A    between atoms: C22_31  and  C24_33
REMARK                            x       y       z     vdW  Elec       q    Type
REMARK                         _______ _______ _______ _____ _____    ______ ____
ROOT
ATOM      1  C1  UNL A   1      -2.503  -0.356 -12.620  0.00  0.00    +0.061 A 
ATOM      2  C2  UNL A   1      -1.466  -0.003 -11.741  0.00  0.00    +0.080 A 
ATOM      3  C3  UNL A   1      -0.153  -0.009 -12.184  0.00  0.00    +0.053 A 
ATOM      4  C4  UNL A   1       0.186  -0.331 -13.496  0.00  0.00    +0.051 A 
ATOM      5  C5  UNL A   1      -0.821  -0.724 -14.367  0.00  0.00    +0.048 A 
ATOM      6  C6  UNL A   1      -2.168  -0.722 -13.975  0.00  0.00    +0.044 A 
ATOM      7  N3  UNL A   1      -1.661   0.351 -10.468  0.00  0.00    -0.235 NA
ATOM      8  C16 UNL A   1      -2.924   0.371 -10.038  0.00  0.00    +0.224 A 
ATOM      9  N4  UNL A   1      -4.001   0.068 -10.758  0.00  0.00    -0.220 NA
ATOM     10  C17 UNL A   1      -3.802  -0.290 -12.041  0.00  0.00    +0.136 A 
ATOM     11  N5  UNL A   1      -4.915  -0.655 -12.837  0.00  0.00    -0.299 N 
ATOM     12  H22 UNL A   1      -4.648  -0.614 -13.821  0.00  0.00    +0.154 HD
ENDROOT
BRANCH   6  13
ATOM     13  N1  UNL A   1      -3.183  -1.087 -14.886  0.00  0.00    -0.329 N 
ATOM     14  C7  UNL A   1      -3.542  -0.111 -15.940  0.00  0.00    +0.105 C 
ATOM     15  C8  UNL A   1      -2.832  -0.340 -17.279  0.00  0.00    +0.026 C 
ATOM     16  C9  UNL A   1      -2.855  -1.798 -17.684  0.00  0.00    -0.026 C 
ATOM     17  C10 UNL A   1      -2.369  -2.728 -16.594  0.00  0.00    +0.026 C 
ATOM     18  C11 UNL A   1      -3.160  -2.508 -15.303  0.00  0.00    +0.105 C 
ATOM     19  C12 UNL A   1      -2.522  -2.143 -19.117  0.00  0.00    +0.007 C 
ATOM     20  C13 UNL A   1      -3.937  -2.280 -18.628  0.00  0.00    +0.007 C 
ENDBRANCH   6  13
BRANCH  11  21
ATOM     21  C18 UNL A   1      -6.298  -0.700 -12.608  0.00  0.00    +0.033 A 
ATOM     22  C19 UNL A   1      -7.147   0.402 -12.722  0.00  0.00    +0.023 A 
ATOM     23  C20 UNL A   1      -8.513   0.297 -12.437  0.00  0.00    +0.002 A 
ATOM     24  C21 UNL A   1      -9.052  -0.918 -12.023  0.00  0.00    +0.003 A 
ATOM     25  C22 UNL A   1      -8.232  -2.039 -11.893  0.00  0.00    -0.049 A 
ATOM     26  C23 UNL A   1      -6.861  -1.913 -12.169  0.00  0.00    +0.026 A 
ATOM     27  C24 UNL A   1      -8.791  -3.341 -11.406  0.00  0.00    +0.044 C 
ENDBRANCH  11  21
BRANCH   4  28
ATOM     28  N2  UNL A   1       1.578  -0.396 -13.826  0.00  0.00    -0.220 N 
ATOM     29  H15 UNL A   1       2.049  -1.284 -13.642  0.00  0.00    +0.173 HD
BRANCH  28  30
ATOM     30  S1  UNL A   1       2.629   0.888 -13.554  0.00  0.00    +0.045 S 
ATOM     31  O2  UNL A   1       1.887   2.098 -13.274  0.00  0.00    -0.155 OA
ATOM     32  O3  UNL A   1       3.615   0.382 -12.623  0.00  0.00    -0.155 OA
BRANCH  30  33
ATOM     33  C14 UNL A   1       3.422   1.038 -15.141  0.00  0.00    +0.216 C 
BRANCH  33  34
ATOM     34  C15 UNL A   1       2.382   1.041 -16.241  0.00  0.00    +0.180 C 
BRANCH  34  35
ATOM     35  O1  UNL A   1       1.398   2.030 -15.945  0.00  0.00    -0.393 OA
ATOM     36  H20 UNL A   1       1.155   1.921 -15.009  0.00  0.00    +0.209 HD
ENDBRANCH  34  35
ENDBRANCH  33  34
ENDBRANCH  30  33
ENDBRANCH  28  30
ENDBRANCH   4  28
TORSDOF 7
ENDMDL
MODEL 5
REMARK VINA RESULT:    -6.913      1.200      1.681
REMARK INTER + INTRA:         -10.903
REMARK INTER:                  -9.589
REMARK INTRA:                  -1.314
REMARK UNBOUND:                -1.363
REMARK  Name = agan9
REMARK  8 active torsions:
REMARK  status: ('A' for Active; 'I' for Inactive)
REMARK    1  A    between atoms: C4_4  and  N2_15
REMARK    2  A    between atoms: C6_6  and  N1_7
REMARK    3  A    between atoms: N2_15  and  S1_16
REMARK    4  A    between atoms: S1_16  and  C14_17
REMARK    5  A    between atoms: C14_17  and  C15_18
REMARK    6  A    between atoms: C15_18  and  O1_19
REMARK    7  A    between atoms: N5_26  and  C18_27
REMARK    8  A    between atoms: C22_31  and  C24_33
REMARK                            x       y       z     vdW  Elec       q    Type
REMARK                         _______ _______ _______ _____ _____    ______ ____
ROOT
ATOM      1  C1  UNL A   1      -2.903  -0.357 -12.674  0.00  0.00    +0.061 A 
ATOM      2  C2  UNL A   1      -2.034   0.592 -12.112  0.00  0.00    +0.080 A 
ATOM      3  C3  UNL A   1      -1.041   1.165 -12.892  0.00  0.00    +0.053 A 
ATOM      4  C4  UNL A   1      -0.884   0.854 -14.240  0.00  0.00    +0.051 A 
ATOM      5  C5  UNL A   1      -1.707  -0.112 -14.801  0.00  0.00    +0.048 A 
ATOM      6  C6  UNL A   1      -2.736  -0.715 -14.062  0.00  0.00    +0.044 A 
ATOM      7  N3  UNL A   1      -2.097   0.995 -10.841  0.00  0.00    -0.235 NA
ATOM      8  C16 UNL A   1      -3.058   0.457 -10.089  0.00  0.00    +0.224 A 
ATOM      9  N4  UNL A   1      -3.951  -0.445 -10.487  0.00  0.00    -0.220 NA
ATOM     10  C17 UNL A   1      -3.885  -0.851 -11.769  0.00  0.00    +0.136 A 
ATOM     11  N5  UNL A   1      -4.793  -1.834 -12.230  0.00  0.00    -0.299 N 
ATOM     12  H22 UNL A   1      -4.811  -1.820 -13.250  0.00  0.00    +0.154 HD
ENDROOT
BRANCH   6  13
ATOM     13  N1  UNL A   1      -3.589  -1.667 -14.660  0.00  0.00    -0.329 N 
ATOM     14  C7  UNL A   1      -4.493  -1.201 -15.736  0.00  0.00    +0.105 C 
ATOM     15  C8  UNL A   1      -3.948  -1.412 -17.153  0.00  0.00    +0.026 C 
ATOM     16  C9  UNL A   1      -3.361  -2.795 -17.328  0.00  0.00    -0.026 C 
ATOM     17  C10 UNL A   1      -2.361  -3.161 -16.253  0.00  0.00    +0.026 C 
ATOM     18  C11 UNL A   1      -2.981  -3.003 -14.863  0.00  0.00    +0.105 C 
ATOM     19  C12 UNL A   1      -3.108  -3.287 -18.735  0.00  0.00    +0.007 C 
ATOM     20  C13 UNL A   1      -4.224  -3.887 -17.926  0.00  0.00    +0.007 C 
ENDBRANCH   6  13
BRANCH  11  21
ATOM     21  C18 UNL A   1      -5.865  -2.520 -11.637  0.00  0.00    +0.033 A 
ATOM     22  C19 UNL A   1      -5.716  -3.583 -10.745  0.00  0.00    +0.023 A 
ATOM     23  C20 UNL A   1      -6.829  -4.252 -10.223  0.00  0.00    +0.002 A 
ATOM     24  C21 UNL A   1      -8.115  -3.871 -10.595  0.00  0.00    +0.003 A 
ATOM     25  C22 UNL A   1      -8.300  -2.816 -11.489  0.00  0.00    -0.049 A 
ATOM     26  C23 UNL A   1      -7.173  -2.165 -12.014  0.00  0.00    +0.026 A 
ATOM     27  C24 UNL A   1      -9.678  -2.424 -11.932  0.00  0.00    +0.044 C 
ENDBRANCH  11  21
BRANCH   4  28
ATOM     28  N2  UNL A   1       0.229   1.433 -14.931  0.00  0.00    -0.220 N 
ATOM     29  H15 UNL A   1       0.102   1.613 -15.929  0.00  0.00    +0.173 HD
BRANCH  28  30
ATOM     30  S1  UNL A   1       1.819   0.980 -14.618  0.00  0.00    +0.045 S 
ATOM     31  O2  UNL A   1       2.444   1.923 -13.718  0.00  0.00    -0.155 OA
ATOM     32  O3  UNL A   1       1.756  -0.430 -14.300  0.00  0.00    -0.155 OA
BRANCH  30  33
ATOM     33  C14 UNL A   1       2.553   1.131 -16.233  0.00  0.00    +0.216 C 
BRANCH  33  34
ATOM     34  C15 UNL A   1       1.865   0.194 -17.203  0.00  0.00    +0.180 C 
BRANCH  34  35
ATOM     35  O1  UNL A   1       1.964   0.734 -18.519  0.00  0.00    -0.393 OA
ATOM     36  H20 UNL A   1       2.435   0.078 -19.063  0.00  0.00    +0.209 HD
ENDBRANCH  34  35
ENDBRANCH  33  34
ENDBRANCH  30  33
ENDBRANCH  28  30
ENDBRANCH   4  28
TORSDOF 7
ENDMDL
MODEL 6
REMARK VINA RESULT:    -6.905      1.498      1.875
REMARK INTER + INTRA:         -10.892
REMARK INTER:                  -9.217
REMARK INTRA:                  -1.676
REMARK UNBOUND:                -1.363
REMARK  Name = agan9
REMARK  8 active torsions:
REMARK  status: ('A' for Active; 'I' for Inactive)
REMARK    1  A    between atoms: C4_4  and  N2_15
REMARK    2  A    between atoms: C6_6  and  N1_7
REMARK    3  A    between atoms: N2_15  and  S1_16
REMARK    4  A    between atoms: S1_16  and  C14_17
REMARK    5  A    between atoms: C14_17  and  C15_18
REMARK    6  A    between atoms: C15_18  and  O1_19
REMARK    7  A    between atoms: N5_26  and  C18_27
REMARK    8  A    between atoms: C22_31  and  C24_33
REMARK                            x       y       z     vdW  Elec       q    Type
REMARK                         _______ _______ _______ _____ _____    ______ ____
ROOT
ATOM      1  C1  UNL A   1      -2.692  -0.496 -12.562  0.00  0.00    +0.061 A 
ATOM      2  C2  UNL A   1      -1.613  -0.084 -11.762  0.00  0.00    +0.080 A 
ATOM      3  C3  UNL A   1      -0.322  -0.144 -12.261  0.00  0.00    +0.053 A 
ATOM      4  C4  UNL A   1      -0.046  -0.580 -13.555  0.00  0.00    +0.051 A 
ATOM      5  C5  UNL A   1      -1.094  -1.031 -14.344  0.00  0.00    +0.048 A 
ATOM      6  C6  UNL A   1      -2.422  -0.979 -13.894  0.00  0.00    +0.044 A 
ATOM      7  N3  UNL A   1      -1.748   0.378 -10.517  0.00  0.00    -0.235 NA
ATOM      8  C16 UNL A   1      -2.989   0.451 -10.035  0.00  0.00    +0.224 A 
ATOM      9  N4  UNL A   1      -4.100   0.102 -10.677  0.00  0.00    -0.220 NA
ATOM     10  C17 UNL A   1      -3.963  -0.364 -11.934  0.00  0.00    +0.136 A 
ATOM     11  N5  UNL A   1      -5.114  -0.781 -12.645  0.00  0.00    -0.299 N 
ATOM     12  H22 UNL A   1      -4.892  -0.826 -13.640  0.00  0.00    +0.154 HD
ENDROOT
BRANCH   6  13
ATOM     13  N1  UNL A   1      -3.480  -1.406 -14.725  0.00  0.00    -0.329 N 
ATOM     14  C7  UNL A   1      -3.798  -0.580 -15.913  0.00  0.00    +0.105 C 
ATOM     15  C8  UNL A   1      -3.137  -1.060 -17.209  0.00  0.00    +0.026 C 
ATOM     16  C9  UNL A   1      -3.268  -2.557 -17.385  0.00  0.00    -0.026 C 
ATOM     17  C10 UNL A   1      -2.821  -3.342 -16.171  0.00  0.00    +0.026 C 
ATOM     18  C11 UNL A   1      -3.564  -2.872 -14.919  0.00  0.00    +0.105 C 
ATOM     19  C12 UNL A   1      -2.992  -3.140 -18.752  0.00  0.00    +0.007 C 
ATOM     20  C13 UNL A   1      -4.401  -3.100 -18.229  0.00  0.00    +0.007 C 
ENDBRANCH   6  13
BRANCH  11  21
ATOM     21  C18 UNL A   1      -6.486  -0.789 -12.352  0.00  0.00    +0.033 A 
ATOM     22  C19 UNL A   1      -7.373   0.221 -12.730  0.00  0.00    +0.023 A 
ATOM     23  C20 UNL A   1      -8.723   0.171 -12.367  0.00  0.00    +0.002 A 
ATOM     24  C21 UNL A   1      -9.208  -0.891 -11.609  0.00  0.00    +0.003 A 
ATOM     25  C22 UNL A   1      -8.348  -1.915 -11.210  0.00  0.00    -0.049 A 
ATOM     26  C23 UNL A   1      -6.993  -1.843 -11.571  0.00  0.00    +0.026 A 
ATOM     27  C24 UNL A   1      -8.848  -3.042 -10.357  0.00  0.00    +0.044 C 
ENDBRANCH  11  21
BRANCH   4  28
ATOM     28  N2  UNL A   1       1.329  -0.690 -13.940  0.00  0.00    -0.220 N 
ATOM     29  H15 UNL A   1       2.011  -0.765 -13.183  0.00  0.00    +0.173 HD
BRANCH  28  30
ATOM     30  S1  UNL A   1       1.978   0.184 -15.222  0.00  0.00    +0.045 S 
ATOM     31  O2  UNL A   1       1.942  -0.598 -16.438  0.00  0.00    -0.155 OA
ATOM     32  O3  UNL A   1       1.349   1.486 -15.151  0.00  0.00    -0.155 OA
BRANCH  30  33
ATOM     33  C14 UNL A   1       3.668   0.380 -14.697  0.00  0.00    +0.216 C 
BRANCH  33  34
ATOM     34  C15 UNL A   1       3.764   1.484 -13.666  0.00  0.00    +0.180 C 
BRANCH  34  35
ATOM     35  O1  UNL A   1       3.107   1.063 -12.473  0.00  0.00    -0.393 OA
ATOM     36  H20 UNL A   1       3.783   1.022 -11.773  0.00  0.00    +0.209 HD
ENDBRANCH  34  35
ENDBRANCH  33  34
ENDBRANCH  30  33
ENDBRANCH  28  30
ENDBRANCH   4  28
TORSDOF 7
ENDMDL
MODEL 7
REMARK VINA RESULT:    -6.831      0.968      1.294
REMARK INTER + INTRA:         -10.791
REMARK INTER:                  -9.452
REMARK INTRA:                  -1.339
REMARK UNBOUND:                -1.363
REMARK  Name = agan9
REMARK  8 active torsions:
REMARK  status: ('A' for Active; 'I' for Inactive)
REMARK    1  A    between atoms: C4_4  and  N2_15
REMARK    2  A    between atoms: C6_6  and  N1_7
REMARK    3  A    between atoms: N2_15  and  S1_16
REMARK    4  A    between atoms: S1_16  and  C14_17
REMARK    5  A    between atoms: C14_17  and  C15_18
REMARK    6  A    between atoms: C15_18  and  O1_19
REMARK    7  A    between atoms: N5_26  and  C18_27
REMARK    8  A    between atoms: C22_31  and  C24_33
REMARK                            x       y       z     vdW  Elec       q    Type
REMARK                         _______ _______ _______ _____ _____    ______ ____
ROOT
ATOM      1  C1  UNL A   1      -2.981  -0.195 -12.654  0.00  0.00    +0.061 A 
ATOM      2  C2  UNL A   1      -1.984   0.637 -12.118  0.00  0.00    +0.080 A 
ATOM      3  C3  UNL A   1      -0.930   1.052 -12.916  0.00  0.00    +0.053 A 
ATOM      4  C4  UNL A   1      -0.829   0.694 -14.258  0.00  0.00    +0.051 A 
ATOM      5  C5  UNL A   1      -1.782  -0.161 -14.793  0.00  0.00    +0.048 A 
ATOM      6  C6  UNL A   1      -2.877  -0.601 -14.035  0.00  0.00    +0.044 A 
ATOM      7  N3  UNL A   1      -1.980   1.071 -10.856  0.00  0.00    -0.235 NA
ATOM      8  C16 UNL A   1      -2.999   0.686 -10.086  0.00  0.00    +0.224 A 
ATOM      9  N4  UNL A   1      -4.012  -0.093 -10.459  0.00  0.00    -0.220 NA
ATOM     10  C17 UNL A   1      -4.014  -0.530 -11.733  0.00  0.00    +0.136 A 
ATOM     11  N5  UNL A   1      -5.052  -1.389 -12.166  0.00  0.00    -0.299 N 
ATOM     12  H22 UNL A   1      -5.077  -1.393 -13.186  0.00  0.00    +0.154 HD
ENDROOT
BRANCH   6  13
ATOM     13  N1  UNL A   1      -3.858  -1.439 -14.607  0.00  0.00    -0.329 N 
ATOM     14  C7  UNL A   1      -4.634  -0.908 -15.751  0.00  0.00    +0.105 C 
ATOM     15  C8  UNL A   1      -4.085  -1.309 -17.125  0.00  0.00    +0.026 C 
ATOM     16  C9  UNL A   1      -3.735  -2.780 -17.182  0.00  0.00    -0.026 C 
ATOM     17  C10 UNL A   1      -2.848  -3.228 -16.041  0.00  0.00    +0.026 C 
ATOM     18  C11 UNL A   1      -3.478  -2.869 -14.694  0.00  0.00    +0.105 C 
ATOM     19  C12 UNL A   1      -3.521  -3.408 -18.540  0.00  0.00    +0.007 C 
ATOM     20  C13 UNL A   1      -4.750  -3.753 -17.745  0.00  0.00    +0.007 C 
ENDBRANCH   6  13
BRANCH  11  21
ATOM     21  C18 UNL A   1      -6.202  -1.908 -11.552  0.00  0.00    +0.033 A 
ATOM     22  C19 UNL A   1      -7.504  -1.646 -11.982  0.00  0.00    +0.023 A 
ATOM     23  C20 UNL A   1      -8.610  -2.162 -11.296  0.00  0.00    +0.002 A 
ATOM     24  C21 UNL A   1      -8.429  -2.945 -10.160  0.00  0.00    +0.003 A 
ATOM     25  C22 UNL A   1      -7.141  -3.222  -9.700  0.00  0.00    -0.049 A 
ATOM     26  C23 UNL A   1      -6.043  -2.685 -10.391  0.00  0.00    +0.026 A 
ATOM     27  C24 UNL A   1      -6.934  -4.027  -8.452  0.00  0.00    +0.044 C 
ENDBRANCH  11  21
BRANCH   4  28
ATOM     28  N2  UNL A   1       0.347   1.100 -14.968  0.00  0.00    -0.220 N 
ATOM     29  H15 UNL A   1       0.201   1.673 -15.802  0.00  0.00    +0.173 HD
BRANCH  28  30
ATOM     30  S1  UNL A   1       1.665   0.079 -15.188  0.00  0.00    +0.045 S 
ATOM     31  O2  UNL A   1       1.679  -0.953 -14.174  0.00  0.00    -0.155 OA
ATOM     32  O3  UNL A   1       1.655  -0.256 -16.596  0.00  0.00    -0.155 OA
BRANCH  30  33
ATOM     33  C14 UNL A   1       3.026   1.194 -14.914  0.00  0.00    +0.216 C 
BRANCH  33  34
ATOM     34  C15 UNL A   1       3.040   1.647 -13.470  0.00  0.00    +0.180 C 
BRANCH  34  35
ATOM     35  O1  UNL A   1       3.609   0.616 -12.666  0.00  0.00    -0.393 OA
ATOM     36  H20 UNL A   1       3.499  -0.220 -13.152  0.00  0.00    +0.209 HD
ENDBRANCH  34  35
ENDBRANCH  33  34
ENDBRANCH  30  33
ENDBRANCH  28  30
ENDBRANCH   4  28
TORSDOF 7
ENDMDL
MODEL 8
REMARK VINA RESULT:    -6.806      1.380      2.055
REMARK INTER + INTRA:         -10.755
REMARK INTER:                  -9.505
REMARK INTRA:                  -1.250
REMARK UNBOUND:                -1.363
REMARK  Name = agan9
REMARK  8 active torsions:
REMARK  status: ('A' for Active; 'I' for Inactive)
REMARK    1  A    between atoms: C4_4  and  N2_15
REMARK    2  A    between atoms: C6_6  and  N1_7
REMARK    3  A    between atoms: N2_15  and  S1_16
REMARK    4  A    between atoms: S1_16  and  C14_17
REMARK    5  A    between atoms: C14_17  and  C15_18
REMARK    6  A    between atoms: C15_18  and  O1_19
REMARK    7  A    between atoms: N5_26  and  C18_27
REMARK    8  A    between atoms: C22_31  and  C24_33
REMARK                            x       y       z     vdW  Elec       q    Type
REMARK                         _______ _______ _______ _____ _____    ______ ____
ROOT
ATOM      1  C1  UNL A   1      -2.789  -0.258 -12.809  0.00  0.00    +0.061 A 
ATOM      2  C2  UNL A   1      -1.861   0.515 -12.092  0.00  0.00    +0.080 A 
ATOM      3  C3  UNL A   1      -0.708   0.964 -12.718  0.00  0.00    +0.053 A 
ATOM      4  C4  UNL A   1      -0.439   0.698 -14.058  0.00  0.00    +0.051 A 
ATOM      5  C5  UNL A   1      -1.325  -0.099 -14.770  0.00  0.00    +0.048 A 
ATOM      6  C6  UNL A   1      -2.513  -0.569 -14.190  0.00  0.00    +0.044 A 
ATOM      7  N3  UNL A   1      -2.014   0.860 -10.812  0.00  0.00    -0.235 NA
ATOM      8  C16 UNL A   1      -3.127   0.442 -10.207  0.00  0.00    +0.224 A 
ATOM      9  N4  UNL A   1      -4.092  -0.288 -10.761  0.00  0.00    -0.220 NA
ATOM     10  C17 UNL A   1      -3.935  -0.636 -12.053  0.00  0.00    +0.136 A 
ATOM     11  N5  UNL A   1      -4.918  -1.442 -12.675  0.00  0.00    -0.299 N 
ATOM     12  H22 UNL A   1      -4.812  -1.375 -13.687  0.00  0.00    +0.154 HD
ENDROOT
BRANCH   6  13
ATOM     13  N1  UNL A   1      -3.421  -1.346 -14.941  0.00  0.00    -0.329 N 
ATOM     14  C7  UNL A   1      -4.145  -0.679 -16.048  0.00  0.00    +0.105 C 
ATOM     15  C8  UNL A   1      -3.496  -0.859 -17.424  0.00  0.00    +0.026 C 
ATOM     16  C9  UNL A   1      -3.083  -2.294 -17.667  0.00  0.00    -0.026 C 
ATOM     17  C10 UNL A   1      -2.252  -2.875 -16.544  0.00  0.00    +0.026 C 
ATOM     18  C11 UNL A   1      -2.978  -2.735 -15.205  0.00  0.00    +0.105 C 
ATOM     19  C12 UNL A   1      -2.759  -2.712 -19.083  0.00  0.00    +0.007 C 
ATOM     20  C13 UNL A   1      -4.020  -3.207 -18.430  0.00  0.00    +0.007 C 
ENDBRANCH   6  13
BRANCH  11  21
ATOM     21  C18 UNL A   1      -6.143  -1.980 -12.251  0.00  0.00    +0.033 A 
ATOM     22  C19 UNL A   1      -7.323  -1.243 -12.136  0.00  0.00    +0.023 A 
ATOM     23  C20 UNL A   1      -8.501  -1.833 -11.664  0.00  0.00    +0.002 A 
ATOM     24  C21 UNL A   1      -8.515  -3.174 -11.291  0.00  0.00    +0.003 A 
ATOM     25  C22 UNL A   1      -7.352  -3.939 -11.389  0.00  0.00    -0.049 A 
ATOM     26  C23 UNL A   1      -6.175  -3.328 -11.851  0.00  0.00    +0.026 A 
ATOM     27  C24 UNL A   1      -7.342  -5.372 -10.950  0.00  0.00    +0.044 C 
ENDBRANCH  11  21
BRANCH   4  28
ATOM     28  N2  UNL A   1       0.822   1.129 -14.582  0.00  0.00    -0.220 N 
ATOM     29  H15 UNL A   1       0.829   1.441 -15.555  0.00  0.00    +0.173 HD
BRANCH  28  30
ATOM     30  S1  UNL A   1       2.266   0.351 -14.211  0.00  0.00    +0.045 S 
ATOM     31  O2  UNL A   1       2.783   0.821 -12.945  0.00  0.00    -0.155 OA
ATOM     32  O3  UNL A   1       2.008  -1.056 -14.437  0.00  0.00    -0.155 OA
BRANCH  30  33
ATOM     33  C14 UNL A   1       3.322   0.918 -15.527  0.00  0.00    +0.216 C 
BRANCH  33  34
ATOM     34  C15 UNL A   1       3.282  -0.061 -16.680  0.00  0.00    +0.180 C 
BRANCH  34  35
ATOM     35  O1  UNL A   1       4.618  -0.369 -17.074  0.00  0.00    -0.393 OA
ATOM     36  H20 UNL A   1       4.559  -0.972 -17.836  0.00  0.00    +0.209 HD
ENDBRANCH  34  35
ENDBRANCH  33  34
ENDBRANCH  30  33
ENDBRANCH  28  30
ENDBRANCH   4  28
TORSDOF 7
ENDMDL
