@<TRIPOS>MOLECULE
agan3
 39 43 0 0 0
SMALL
GASTEIGER

@<TRIPOS>ATOM
      1  C1        -3.8470   -0.2630  -11.1170 C.2     1  UNL1        0.0410
      2  C2        -3.4120    0.1470   -9.8650 C.2     1  UNL1        0.0260
      3  C3        -4.3570    0.3240   -8.8500 C.2     1  UNL1        0.0260
      4  C4        -5.7120    0.0790   -9.0950 C.2     1  UNL1        0.0480
      5  C5        -6.1470   -0.3250  -10.3570 C.2     1  UNL1        0.0300
      6  C6        -5.2020   -0.4950  -11.3650 C.2     1  UNL1       -0.0170
      7  C7        -5.4490   -0.8730  -12.8110 C.3     1  UNL1        0.0140
      8  C8        -3.9890   -0.9710  -13.3390 C.3     1  UNL1        0.1250
      9  N1        -3.0860   -0.4990  -12.2720 N.am    1  UNL1       -0.2660
     10  C9        -1.7170   -0.3150  -12.3860 C.2     1  UNL1        0.2510
     11  O3        -0.9580    0.1210  -11.5280 O.2     1  UNL1       -0.2700
     12  C20       -6.1860   -2.2220  -12.9320 C.3     1  UNL1        0.0130
     13  C21       -6.5010   -2.5780  -14.3850 C.3     1  UNL1        0.0080
     14  C22       -7.2680   -1.4600  -15.0480 C.3     1  UNL1       -0.0290
     15  C23       -6.5770   -0.1180  -14.9810 C.3     1  UNL1        0.0080
     16  C24       -6.2390    0.2420  -13.5320 C.3     1  UNL1        0.0130
     17  C25       -8.0640   -1.7850  -16.2920 C.3     1  UNL1        0.0070
     18  C26       -8.7810   -1.4950  -15.0020 C.3     1  UNL1        0.0070
     19  C10       -1.1130   -0.6750  -13.6840 C.2     1  UNL1        0.0390
     20  C11       -0.4090    0.2880  -14.4090 C.2     1  UNL1        0.0410
     21  C12        0.1810   -0.0850  -15.6170 C.2     1  UNL1        0.1060
     22  C13        0.0550   -1.3910  -16.1070 C.2     1  UNL1        0.0280
     23  C14       -0.6760   -2.3340  -15.3820 C.2     1  UNL1        0.0030
     24  C15       -1.2640   -1.9780  -14.1690 C.2     1  UNL1        0.0130
     25  S1         1.1190    1.1120  -16.5280 S.O2    1  UNL1        0.0590
     26  O1         0.2030    2.1750  -16.8780 O.2     1  UNL1       -0.1530
     27  O2         1.9100    0.4280  -17.5250 O.2     1  UNL1       -0.1530
     28  N2         2.1440    1.7590  -15.3680 N.3     1  UNL1       -0.1850
     29  H10        2.2120    2.7730  -15.4710 H       1  UNL1        0.1490
     30  C16        3.3180    1.0650  -14.7940 C.3     1  UNL1        0.0320
     31  C17        4.4320    0.9770  -15.8410 C.3     1  UNL1        0.0290
     32  C18        3.8050    1.9470  -13.6280 C.3     1  UNL1        0.0290
     33  C19        2.9730   -0.3190  -14.2390 C.3     1  UNL1        0.0290
     34  N3        -6.6580    0.3120   -8.0550 N.pl3   1  UNL1       -0.2210
     35  H32       -6.4550    1.1160   -7.4590 H       1  UNL1        0.1730
     36  S2        -7.0530   -1.0070   -7.0670 S.O2    1  UNL1        0.0400
     37  C27       -8.8200   -1.0860   -7.2660 C.3     1  UNL1        0.2180
     38  O4        -6.7840   -0.5610   -5.7160 O.2     1  UNL1       -0.1550
     39  O5        -6.4560   -2.2170   -7.5850 O.2     1  UNL1       -0.1550
@<TRIPOS>BOND
     1    27    25    2
     2    26    25    2
     3    25    21    1
     4    25    28    1
     5    17    14    1
     6    17    18    1
     7    22    21    2
     8    22    23    1
     9    31    30    1
    10    21    20    1
    11    29    28    1
    12    23    24    2
    13    28    30    1
    14    14    18    1
    15    14    15    1
    16    14    13    1
    17    15    16    1
    18    30    33    1
    19    30    32    1
    20    20    19    2
    21    13    12    1
    22    24    19    1
    23    19    10    1
    24    16     7    1
    25     8     7    1
    26     8     9    1
    27    12     7    1
    28     7     6    1
    29    10     9   am
    30    10    11    2
    31     9     1    1
    32     6     1    2
    33     6     5    1
    34     1     2    1
    35     5     4    2
    36     2     3    2
    37     4     3    1
    38     4    34    1
    39    34    35    1
    40    34    36    1
    41    39    36    2
    42    37    36    1
    43    36    38    2
