@<TRIPOS>MOLECULE
agan5
 44 49 0 0 0
SMALL
GASTEIGER

@<TRIPOS>ATOM
      1  C1        -2.6660   -0.3910  -12.8810 C.2     1  UNL1        0.0610
      2  C2        -1.8250    0.5730  -12.3010 C.2     1  UNL1        0.0800
      3  C3        -0.8110    1.1430  -13.0570 C.2     1  UNL1        0.0530
      4  C4        -0.5650    0.7770  -14.3800 C.2     1  UNL1        0.0510
      5  C5        -1.4130   -0.1420  -14.9810 C.2     1  UNL1        0.0480
      6  C6        -2.4460   -0.7590  -14.2530 C.2     1  UNL1        0.0440
      7  N3        -1.9410    0.9890  -11.0390 N.2     1  UNL1       -0.2350
      8  C16       -2.9070    0.4310  -10.3080 C.2     1  UNL1        0.2240
      9  N4        -3.7720   -0.4930  -10.7240 N.2     1  UNL1       -0.2200
     10  C17       -3.6580   -0.9080  -12.0010 C.2     1  UNL1        0.1360
     11  N5        -4.5710   -1.8660  -12.5030 N.pl3   1  UNL1       -0.2990
     12  H22       -4.2130   -2.2520  -13.3800 H       1  UNL1        0.1540
     13  N1        -3.2760   -1.7330  -14.8780 N.pl3   1  UNL1       -0.3290
     14  C7        -2.5480   -2.9330  -15.3710 C.3     1  UNL1        0.1050
     15  C8        -2.6050   -3.0780  -16.8950 C.3     1  UNL1        0.0260
     16  C9        -4.0380   -3.0780  -17.3960 C.3     1  UNL1       -0.0260
     17  C10       -4.9820   -2.1820  -16.6120 C.3     1  UNL1        0.0260
     18  C11       -4.2090   -1.1040  -15.8470 C.3     1  UNL1        0.1050
     19  C12       -4.6080   -4.3610  -17.9690 C.3     1  UNL1        0.0070
     20  C13       -4.2570   -3.2310  -18.8890 C.3     1  UNL1        0.0070
     21  C18       -5.6480   -2.5690  -11.9430 C.2     1  UNL1        0.0340
     22  C19       -5.8120   -3.9200  -12.2890 C.2     1  UNL1        0.0260
     23  C20       -6.8760   -4.6790  -11.7920 C.2     1  UNL1       -0.0470
     24  C21       -7.7830   -4.0770  -10.9160 C.2     1  UNL1        0.0260
     25  C22       -7.6700   -2.7260  -10.5520 C.2     1  UNL1        0.0320
     26  C23       -6.5940   -1.9940  -11.0840 C.2     1  UNL1        0.0460
     27  C29       -7.0000   -6.1330  -12.1350 C.3     1  UNL1        0.0440
     28  N6        -8.6290   -2.1800   -9.6710 N.pl3   1  UNL1       -0.3300
     29  C24       -8.1220   -1.2660   -8.6360 C.3     1  UNL1        0.1110
     30  C25       -9.2060   -1.0540   -7.5930 C.3     1  UNL1        0.0940
     31  C26      -10.4650   -0.5560   -8.2690 C.3     1  UNL1        0.2520
     32  C27      -10.9380   -1.4470   -9.3970 C.3     1  UNL1        0.0940
     33  C28       -9.8090   -1.6660  -10.3910 C.3     1  UNL1        0.1110
     34  F1       -11.4550   -0.4400   -7.3450 F       1  UNL1       -0.2060
     35  F2       -10.2520    0.7000   -8.7480 F       1  UNL1       -0.2060
     36  N2         0.4500    1.4990  -15.0870 N.pl3   1  UNL1       -0.2200
     37  H15        0.7240    2.3970  -14.6830 H       1  UNL1        0.1730
     38  S1         1.7900    0.7450  -15.7680 S.O2    1  UNL1        0.0450
     39  O2         1.8250    0.9880  -17.1920 O.2     1  UNL1       -0.1550
     40  O3         1.7700   -0.6050  -15.2440 O.2     1  UNL1       -0.1550
     41  C14        3.1480    1.6030  -14.9970 C.3     1  UNL1        0.2160
     42  C15        2.8450    1.9800  -13.5660 C.3     1  UNL1        0.1800
     43  O1         2.6860    0.7890  -12.7990 O.3     1  UNL1       -0.3930
     44  H20        1.8220    0.4060  -13.0340 H       1  UNL1        0.2090
@<TRIPOS>BOND
     1    20    19    1
     2    20    16    1
     3    19    16    1
     4    16    15    1
     5    16    17    1
     6    39    38    2
     7    15    14    1
     8    17    18    1
     9    18    13    1
    10    38    40    2
    11    38    36    1
    12    38    41    1
    13    14    13    1
    14    36    37    1
    15    36     4    1
    16    41    42    1
    17     5     4    1
    18     5     6    2
    19    13     6    1
    20     4     3    2
    21     6     1    1
    22    42    43    1
    23    12    11    1
    24     3     2    1
    25    44    43    1
    26     1     2    2
    27     1    10    1
    28    11    10    1
    29    11    21    1
    30     2     7    1
    31    22    21    2
    32    22    23    1
    33    27    23    1
    34    10     9    2
    35    21    26    1
    36    23    24    2
    37    26    25    2
    38     7     8    2
    39    24    25    1
    40     9     8    1
    41    25    28    1
    42    33    28    1
    43    33    32    1
    44    28    29    1
    45    32    31    1
    46    35    31    1
    47    29    30    1
    48    31    30    1
    49    31    34    1
