@<TRIPOS>MOLECULE
agan9
 36 40 0 0 0
SMALL
GASTEIGER

@<TRIPOS>ATOM
      1  C1        -3.0270   -0.3290  -12.4220 C.2     1  UNL1        0.0610
      2  C2        -2.1800    0.6670  -11.9070 C.2     1  UNL1        0.0800
      3  C3        -1.2450    1.2720  -12.7320 C.2     1  UNL1        0.0530
      4  C4        -1.1250    0.9470  -14.0810 C.2     1  UNL1        0.0510
      5  C5        -1.9250   -0.0630  -14.5970 C.2     1  UNL1        0.0480
      6  C6        -2.8970   -0.6990  -13.8100 C.2     1  UNL1        0.0440
      7  N3        -2.2120    1.0850  -10.6400 N.2     1  UNL1       -0.2350
      8  C16       -3.1180    0.5170   -9.8430 C.2     1  UNL1        0.2240
      9  N4        -3.9850   -0.4300  -10.1940 N.2     1  UNL1       -0.2200
     10  C17       -3.9500   -0.8520  -11.4720 C.2     1  UNL1        0.1360
     11  N5        -4.8300   -1.8810  -11.8840 N.pl3   1  UNL1       -0.2990
     12  H22       -4.8870   -1.8830  -12.9020 H       1  UNL1        0.1540
     13  N1        -3.7280   -1.6970  -14.3610 N.pl3   1  UNL1       -0.3290
     14  C7        -4.7320   -1.2780  -15.3660 C.3     1  UNL1        0.1050
     15  C8        -4.2750   -1.4400  -16.8200 C.3     1  UNL1        0.0260
     16  C9        -3.6170   -2.7820  -17.0550 C.3     1  UNL1       -0.0260
     17  C10       -2.5240   -3.0950  -16.0560 C.3     1  UNL1        0.0260
     18  C11       -3.0540   -2.9910  -14.6250 C.3     1  UNL1        0.1050
     19  C12       -3.4320   -3.2430  -18.4820 C.3     1  UNL1        0.0070
     20  C13       -4.4500   -3.9200  -17.6070 C.3     1  UNL1        0.0070
     21  C18       -5.8450   -2.6050  -11.2410 C.2     1  UNL1        0.0330
     22  C19       -5.9170   -3.9990  -11.2140 C.2     1  UNL1        0.0230
     23  C20       -6.9820   -4.6570  -10.5900 C.2     1  UNL1        0.0020
     24  C21       -8.0030   -3.9280   -9.9880 C.2     1  UNL1        0.0030
     25  C22       -7.9670   -2.5330  -10.0010 C.2     1  UNL1       -0.0490
     26  C23       -6.8980   -1.8880  -10.6430 C.2     1  UNL1        0.0260
     27  C24       -9.0820   -1.7350   -9.3960 C.3     1  UNL1        0.0440
     28  N2        -0.0670    1.5650  -14.8220 N.pl3   1  UNL1       -0.2200
     29  H15       -0.3450    2.1450  -15.6160 H       1  UNL1        0.1730
     30  S1         1.3790    0.7740  -15.1590 S.O2    1  UNL1        0.0450
     31  O2         1.1230   -0.5760  -15.6090 O.2     1  UNL1       -0.1550
     32  O3         2.1400    1.7010  -15.9680 O.2     1  UNL1       -0.1550
     33  C14        2.1370    0.7250  -13.5490 C.3     1  UNL1        0.2160
     34  C15        3.0890    1.8900  -13.3900 C.3     1  UNL1        0.1800
     35  O1         2.3420    3.1050  -13.3970 O.3     1  UNL1       -0.3930
     36  H20        1.6720    3.0320  -12.6950 H       1  UNL1        0.2090
@<TRIPOS>BOND
     1    19    20    1
     2    19    16    1
     3    20    16    1
     4    16    15    1
     5    16    17    1
     6    15    14    1
     7    17    18    1
     8    32    30    2
     9    29    28    1
    10    31    30    2
    11    14    13    1
    12    30    28    1
    13    30    33    1
    14    28     4    1
    15    18    13    1
    16     5     4    1
    17     5     6    2
    18    13     6    1
    19     4     3    2
    20     6     1    1
    21    33    34    1
    22    35    34    1
    23    35    36    1
    24    12    11    1
    25     3     2    1
    26     1     2    2
    27     1    10    1
    28     2     7    1
    29    11    10    1
    30    11    21    1
    31    10     9    2
    32    21    22    2
    33    21    26    1
    34    22    23    1
    35    26    25    2
    36     7     8    2
    37    23    24    2
    38     9     8    1
    39    25    24    1
    40    25    27    1
