@<TRIPOS>MOLECULE
agan1
 42 46 0 0 0
SMALL
GASTEIGER

@<TRIPOS>ATOM
      1  C12       -1.2390    0.0200  -12.8710 C.2     1  UNL1        0.0580
      2  C13       -1.5820    0.0600  -14.2480 C.2     1  UNL1        0.0440
      3  C14       -0.5590   -0.1280  -15.2000 C.2     1  UNL1        0.0480
      4  C15        0.7620   -0.3570  -14.8090 C.2     1  UNL1        0.0500
      5  C16        1.0930   -0.4140  -13.4630 C.2     1  UNL1        0.0250
      6  C17        0.1000   -0.2190  -12.5020 C.2     1  UNL1        0.0170
      7  C1        -5.7880    0.7830   -7.7060 C.3     1  UNL1        0.0660
      8  C2        -5.5210   -0.1190   -8.8720 C.2     1  UNL1        0.0450
      9  C3        -4.4390    0.1070   -9.6900 C.2     1  UNL1        0.0670
     10  C4        -4.2750   -0.7750  -10.7280 C.2     1  UNL1        0.1310
     11  N1        -5.1170   -1.8040  -10.9410 N.2     1  UNL1       -0.1990
     12  C5        -6.1530   -1.9670  -10.1060 C.cat   1  UNL1        0.2200
     13  N2        -6.3740   -1.1420   -9.0710 N.2     1  UNL1       -0.2200
     14  N3        -7.0230   -3.0550  -10.3000 N.pl3   1  UNL1       -0.2990
     15  C6        -6.9840   -3.5940  -11.6610 C.3     1  UNL1        0.1140
     16  C7        -7.7730   -4.8890  -11.7330 C.3     1  UNL1        0.0940
     17  C8        -9.1640   -4.6760  -11.1850 C.3     1  UNL1        0.2520
     18  C9        -9.1630   -4.1210   -9.7800 C.3     1  UNL1        0.0940
     19  C10       -8.3560   -2.8340   -9.7300 C.3     1  UNL1        0.1140
     20  F1        -9.8380   -5.8560  -11.2010 F       1  UNL1       -0.2060
     21  F2        -9.8510   -3.8390  -12.0050 F       1  UNL1       -0.2060
     22  N4        -3.2360   -0.6940  -11.6540 N.am    1  UNL1       -0.2660
     23  C11       -2.2130    0.2160  -11.7370 C.2     1  UNL1        0.2510
     24  O1        -2.0460    1.1600  -10.9690 O.2     1  UNL1       -0.2700
     25  H13       -3.2530   -1.4240  -12.3640 H       1  UNL1        0.1570
     26  N6        -2.9280    0.2630  -14.6660 N.pl3   1  UNL1       -0.3290
     27  C20       -3.1390    1.6040  -15.2710 C.3     1  UNL1        0.1050
     28  C21       -4.6380    1.8250  -15.5060 C.3     1  UNL1        0.0260
     29  C22       -5.2210    0.7040  -16.3460 C.3     1  UNL1       -0.0260
     30  C23       -5.3230    0.8910  -17.8440 C.3     1  UNL1        0.0070
     31  C24       -6.5670    0.9260  -16.9990 C.3     1  UNL1        0.0070
     32  C25       -4.9060   -0.6770  -15.8010 C.3     1  UNL1        0.0260
     33  C26       -3.4010   -0.8360  -15.5530 C.3     1  UNL1        0.1050
     34  N5         1.7710   -0.5980  -15.7860 N.pl3   1  UNL1       -0.2210
     35  H17        2.6280   -1.0250  -15.4260 H       1  UNL1        0.1730
     36  S1         2.1940    0.7040  -16.7890 S.O2    1  UNL1        0.0450
     37  O2         2.2670    1.8480  -15.9030 O.2     1  UNL1       -0.1550
     38  O3         1.3470    0.7180  -17.9590 O.2     1  UNL1       -0.1550
     39  C18        3.8580    0.2690  -17.2500 C.3     1  UNL1        0.2160
     40  C19        3.9960    0.2670  -18.7560 C.3     1  UNL1        0.1800
     41  O4         3.7350    1.5720  -19.2680 O.3     1  UNL1       -0.3930
     42  H22        2.7700    1.6710  -19.3560 H       1  UNL1        0.2090
@<TRIPOS>BOND
     1    42    41    1
     2    41    40    1
     3    40    39    1
     4    38    36    2
     5    30    31    1
     6    30    29    1
     7    39    36    1
     8    31    29    1
     9    36    37    2
    10    36    34    1
    11    29    32    1
    12    29    28    1
    13    32    33    1
    14    34    35    1
    15    34     4    1
    16    33    26    1
    17    28    27    1
    18    27    26    1
    19     3     4    2
    20     3     2    1
    21     4     5    1
    22    26     2    1
    23     2     1    2
    24     5     6    2
    25     1     6    1
    26     1    23    1
    27    25    22    1
    28    21    17    1
    29    23    22   am
    30    23    24    2
    31    16    15    1
    32    16    17    1
    33    15    14    1
    34    22    10    1
    35    20    17    1
    36    17    18    1
    37    11    10    1
    38    11    12    2
    39    10     9    2
    40    14    12    1
    41    14    19    1
    42    12    13    1
    43    18    19    1
    44     9     8    1
    45    13     8    2
    46     8     7    1
