@<TRIPOS>MOLECULE
agan10
 40 45 0 0 0
SMALL
GASTEIGER

@<TRIPOS>ATOM
      1  C1        -1.1540   -0.7680  -13.0880 C.2     1  UNL1        0.0280
      2  C2        -0.0320   -0.2030  -12.4420 C.2     1  UNL1        0.0140
      3  C3         1.2010   -0.0930  -13.0870 C.2     1  UNL1        0.0250
      4  C4         1.3350   -0.5620  -14.3860 C.2     1  UNL1        0.0500
      5  C5         0.2380   -1.1230  -15.0400 C.2     1  UNL1        0.0480
      6  C6        -1.0220   -1.2420  -14.4150 C.2     1  UNL1        0.0410
      7  C16       -2.3940   -0.8710  -12.3120 C.ar    1  UNL1        0.1110
      8  N3        -3.2280   -1.8830  -12.3540 N.ar    1  UNL1       -0.2370
      9  C17       -4.3130   -1.6720  -11.5050 C.ar    1  UNL1        0.1000
     10  C18       -4.2600   -0.4640  -10.8020 C.ar    1  UNL1        0.0410
     11  S2        -2.8210    0.3870  -11.2250 S.2     1  UNL1       -0.0670
     12  C19       -5.2640   -0.0660   -9.9060 C.2     1  UNL1        0.0170
     13  C20       -6.3510   -0.9140   -9.7210 C.2     1  UNL1        0.0030
     14  C21       -6.4310   -2.1190  -10.4120 C.2     1  UNL1        0.0250
     15  C22       -5.4330   -2.5430  -11.3220 C.2     1  UNL1        0.0570
     16  N4        -5.6470   -3.8060  -11.9610 N.pl3   1  UNL1       -0.3280
     17  C23       -5.6280   -3.7650  -13.4330 C.3     1  UNL1        0.1110
     18  C24       -5.5870   -5.1920  -13.9560 C.3     1  UNL1        0.0940
     19  C25       -6.7750   -5.9530  -13.4070 C.3     1  UNL1        0.2520
     20  C26       -6.8730   -5.9110  -11.8970 C.3     1  UNL1        0.0940
     21  C27       -6.8470   -4.4690  -11.4180 C.3     1  UNL1        0.1110
     22  F1        -7.9210   -5.4530  -13.9430 F       1  UNL1       -0.2060
     23  F2        -6.7060   -7.2480  -13.8140 F       1  UNL1       -0.2060
     24  N1        -2.0210   -1.8380  -15.2060 N.pl3   1  UNL1       -0.3290
     25  C7        -1.6830   -3.1000  -15.8840 C.3     1  UNL1        0.1050
     26  C8        -2.9790   -3.7870  -16.3380 C.3     1  UNL1        0.0260
     27  C9        -3.8030   -2.8510  -17.2050 C.3     1  UNL1       -0.0260
     28  C10       -4.0450   -1.5000  -16.5590 C.3     1  UNL1        0.0260
     29  C11       -2.7270   -0.8760  -16.0760 C.3     1  UNL1        0.1050
     30  C12       -3.6550   -2.9230  -18.7100 C.3     1  UNL1        0.0070
     31  C13       -4.9020   -3.4480  -18.0560 C.3     1  UNL1        0.0070
     32  N2         2.5770   -0.4310  -15.0780 N.pl3   1  UNL1       -0.2210
     33  H16        2.7130   -1.1050  -15.8360 H       1  UNL1        0.1730
     34  S1         2.9930    1.1110  -15.6430 S.O2    1  UNL1        0.0450
     35  O2         1.8320    1.5790  -16.3710 O.2     1  UNL1       -0.1550
     36  O3         3.5860    1.8970  -14.5850 O.2     1  UNL1       -0.1550
     37  C14        4.2500    0.7060  -16.8340 C.3     1  UNL1        0.2160
     38  C15        3.6130    0.3640  -18.1650 C.3     1  UNL1        0.1800
     39  O1         4.6270   -0.0680  -19.0690 O.3     1  UNL1       -0.3930
     40  H21        5.2990   -0.5350  -18.5420 H       1  UNL1        0.2090
@<TRIPOS>BOND
     1    39    40    1
     2    39    38    1
     3    30    31    1
     4    30    27    1
     5    38    37    1
     6    31    27    1
     7    27    28    1
     8    27    26    1
     9    37    34    1
    10    28    29    1
    11    35    34    2
    12    26    25    1
    13    29    24    1
    14    25    24    1
    15    33    32    1
    16    34    32    1
    17    34    36    2
    18    24     6    1
    19    32     4    1
    20     5     6    1
    21     5     4    2
    22     6     1    2
    23     4     3    1
    24    18    17    1
    25    18    19    1
    26    22    19    1
    27    23    19    1
    28    17    16    1
    29    19    20    1
    30     1     2    1
    31     1     7    1
    32     3     2    2
    33     8     7   ar
    34     8     9   ar
    35     7    11   ar
    36    16    21    1
    37    16    15    1
    38    20    21    1
    39     9    15    2
    40     9    10   ar
    41    15    14    1
    42    11    10   ar
    43    10    12    2
    44    14    13    2
    45    12    13    1
