@<TRIPOS>MOLECULE
agan6
 40 45 0 0 0
SMALL
GASTEIGER

@<TRIPOS>ATOM
      1  C1        -1.3060   -0.2160  -12.8800 C.2     1  UNL1        0.0280
      2  C2        -0.0570   -0.7820  -12.5500 C.2     1  UNL1        0.0140
      3  C3         0.9460   -0.9240  -13.5070 C.2     1  UNL1        0.0250
      4  C4         0.7110   -0.4990  -14.8080 C.2     1  UNL1        0.0500
      5  C5        -0.5290    0.0350  -15.1620 C.2     1  UNL1        0.0480
      6  C6        -1.5620    0.1840  -14.2170 C.2     1  UNL1        0.0410
      7  C16       -2.2880   -0.0780  -11.7920 C.ar    1  UNL1        0.1110
      8  S2        -3.7070   -1.0400  -11.7650 S.2     1  UNL1       -0.0650
      9  C17       -4.2350   -0.2680  -10.3100 C.ar    1  UNL1        0.0600
     10  C18       -3.2920    0.7150   -9.9840 C.ar    1  UNL1        0.0810
     11  N3        -2.2100    0.8270  -10.8410 N.ar    1  UNL1       -0.2390
     12  C19       -3.4920    1.5120   -8.8400 C.2     1  UNL1        0.0290
     13  C20       -4.6170    1.3150   -8.0430 C.2     1  UNL1        0.0040
     14  C21       -5.5400    0.3320   -8.3790 C.2     1  UNL1        0.0240
     15  C22       -5.3900   -0.4940   -9.5140 C.2     1  UNL1        0.0460
     16  N4        -6.4120   -1.4550   -9.7250 N.pl3   1  UNL1       -0.3290
     17  C23       -7.4880   -0.9690  -10.6020 C.3     1  UNL1        0.1110
     18  C24       -8.3380   -2.1590  -11.0190 C.3     1  UNL1        0.0940
     19  C25       -8.8300   -2.8870   -9.7860 C.3     1  UNL1        0.2520
     20  C26       -7.7230   -3.2900   -8.8330 C.3     1  UNL1        0.0940
     21  C27       -6.8880   -2.0700   -8.4780 C.3     1  UNL1        0.1110
     22  F1        -9.7240   -2.1010   -9.1270 F       1  UNL1       -0.2060
     23  F2        -9.5180   -3.9960  -10.1650 F       1  UNL1       -0.2060
     24  N1        -2.8340    0.6510  -14.6080 N.pl3   1  UNL1       -0.3290
     25  C7        -3.4170   -0.1770  -15.6910 C.3     1  UNL1        0.1050
     26  C8        -4.6990    0.4640  -16.2340 C.3     1  UNL1        0.0260
     27  C9        -4.4170    1.8430  -16.8070 C.3     1  UNL1       -0.0260
     28  C10       -3.2420    2.5600  -16.1630 C.3     1  UNL1        0.0260
     29  C11       -3.0450    2.1080  -14.7120 C.3     1  UNL1        0.1050
     30  C12       -4.6540    2.0780  -18.2850 C.3     1  UNL1        0.0070
     31  C13       -5.6010    2.6620  -17.2800 C.3     1  UNL1        0.0070
     32  N2         1.7100   -0.6820  -15.8130 N.pl3   1  UNL1       -0.2210
     33  H16        1.3940   -1.2040  -16.6330 H       1  UNL1        0.1730
     34  S1         2.5260    0.7040  -16.3470 S.O2    1  UNL1        0.0450
     35  O2         3.0910    1.4000  -15.2140 O.2     1  UNL1       -0.1550
     36  O3         1.5930    1.3700  -17.2330 O.2     1  UNL1       -0.1550
     37  C14        3.8440    0.0350  -17.3420 C.3     1  UNL1        0.2160
     38  C15        3.4960    0.0290  -18.8140 C.3     1  UNL1        0.1800
     39  O1         3.5470    1.3660  -19.3080 O.3     1  UNL1       -0.3930
     40  H21        2.9290    1.8930  -18.7710 H       1  UNL1        0.2090
@<TRIPOS>BOND
     1    39    38    1
     2    39    40    1
     3    38    37    1
     4    30    31    1
     5    30    27    1
     6    37    34    1
     7    31    27    1
     8    36    34    2
     9    27    26    1
    10    27    28    1
    11    33    32    1
    12    34    32    1
    13    34    35    2
    14    26    25    1
    15    28    29    1
    16    32     4    1
    17    25    24    1
    18     5     4    2
    19     5     6    1
    20     4     3    1
    21    29    24    1
    22    24     6    1
    23     6     1    2
    24     3     2    2
    25     1     2    1
    26     1     7    1
    27     7     8   ar
    28     7    11   ar
    29     8     9   ar
    30    18    17    1
    31    18    19    1
    32    11    10   ar
    33    17    16    1
    34     9    10   ar
    35     9    15    1
    36    23    19    1
    37    10    12    1
    38    19    22    1
    39    19    20    1
    40    16    15    1
    41    16    21    1
    42    15    14    2
    43    12    13    2
    44    20    21    1
    45    14    13    1
