REMARK  Name = agan6
REMARK  8 active torsions:
REMARK  status: ('A' for Active; 'I' for Inactive)
REMARK    1  A    between atoms: C1_1  and  C16_22
REMARK    2  A    between atoms: C4_4  and  N2_15
REMARK    3  A    between atoms: C6_6  and  N1_7
REMARK    4  A    between atoms: N2_15  and  S1_16
REMARK    5  A    between atoms: S1_16  and  C14_17
REMARK    6  A    between atoms: C14_17  and  C15_18
REMARK    7  A    between atoms: C15_18  and  O1_19
REMARK    8  A    between atoms: C22_30  and  N4_31
REMARK                            x       y       z     vdW  Elec       q    Type
REMARK                         _______ _______ _______ _____ _____    ______ ____
ROOT
ATOM      1  C1  UNL A   1      -0.313  -1.370   1.586  0.00  0.00    +0.028 A 
ATOM      2  C2  UNL A   1      -0.580  -2.413   2.496  0.00  0.00    +0.014 A 
ATOM      3  C3  UNL A   1      -1.645  -3.289   2.297  0.00  0.00    +0.025 A 
ATOM      4  C4  UNL A   1      -2.457  -3.132   1.181  0.00  0.00    +0.050 A 
ATOM      5  C5  UNL A   1      -2.228  -2.087   0.284  0.00  0.00    +0.048 A 
ATOM      6  C6  UNL A   1      -1.163  -1.184   0.465  0.00  0.00    +0.041 A 
ENDROOT
BRANCH   1   7
ATOM      7  C16 UNL A   1       0.855  -0.518   1.865  0.00  0.00    +0.111 A 
ATOM      8  S2  UNL A   1       2.079  -0.295   0.685  0.00  0.00    -0.065 S 
ATOM      9  C17 UNL A   1       2.974   0.716   1.766  0.00  0.00    +0.060 A 
ATOM     10  C18 UNL A   1       2.278   0.761   2.980  0.00  0.00    +0.081 A 
ATOM     11  N3  UNL A   1       1.095   0.042   3.030  0.00  0.00    -0.239 NA
ATOM     12  C19 UNL A   1       2.804   1.510   4.051  0.00  0.00    +0.029 A 
ATOM     13  C20 UNL A   1       4.004   2.199   3.894  0.00  0.00    +0.004 A 
ATOM     14  C21 UNL A   1       4.679   2.147   2.680  0.00  0.00    +0.024 A 
ATOM     15  C22 UNL A   1       4.198   1.412   1.575  0.00  0.00    +0.046 A 
BRANCH  15  16
ATOM     16  N4  UNL A   1       4.995   1.456   0.402  0.00  0.00    -0.329 N 
ATOM     17  C23 UNL A   1       4.319   2.107  -0.730  0.00  0.00    +0.111 C 
ATOM     18  C24 UNL A   1       5.356   2.391  -1.806  0.00  0.00    +0.094 C 
ATOM     19  C25 UNL A   1       6.071   1.107  -2.171  0.00  0.00    +0.252 C 
ATOM     20  C26 UNL A   1       6.673   0.384  -0.983  0.00  0.00    +0.094 C 
ATOM     21  C27 UNL A   1       5.601   0.158   0.072  0.00  0.00    +0.111 C 
ATOM     22  F1  UNL A   1       5.203   0.275  -2.808  0.00  0.00    -0.206 F 
ATOM     23  F2  UNL A   1       7.052   1.381  -3.070  0.00  0.00    -0.206 F 
ENDBRANCH  15  16
ENDBRANCH   1   7
BRANCH   6  24
ATOM     24  N1  UNL A   1      -0.994  -0.087  -0.405  0.00  0.00    -0.329 N 
ATOM     25  C7  UNL A   1      -1.574   1.157   0.155  0.00  0.00    +0.105 C 
ATOM     26  C8  UNL A   1      -1.558   2.281  -0.887  0.00  0.00    +0.026 C 
ATOM     27  C9  UNL A   1      -2.375   1.900  -2.110  0.00  0.00    -0.026 C 
ATOM     28  C10 UNL A   1      -2.435   0.406  -2.383  0.00  0.00    +0.026 C 
ATOM     29  C11 UNL A   1      -1.185  -0.304  -1.853  0.00  0.00    +0.105 C 
ATOM     30  C12 UNL A   1      -3.602   2.722  -2.450  0.00  0.00    +0.007 C 
ATOM     31  C13 UNL A   1      -2.365   2.856  -3.286  0.00  0.00    +0.007 C 
ENDBRANCH   6  24
BRANCH   4  32
ATOM     32  N2  UNL A   1      -3.582  -3.991   0.987  0.00  0.00    -0.221 N 
ATOM     33  H16 UNL A   1      -3.414  -4.969   1.235  0.00  0.00    +0.173 HD
BRANCH  32  34
ATOM     34  S1  UNL A   1      -5.048  -3.509   1.687  0.00  0.00    +0.045 S 
ATOM     35  O2  UNL A   1      -4.783  -2.707   2.859  0.00  0.00    -0.155 OA
ATOM     36  O3  UNL A   1      -5.834  -4.722   1.784  0.00  0.00    -0.155 OA
BRANCH  34  37
ATOM     37  C14 UNL A   1      -5.777  -2.484   0.425  0.00  0.00    +0.216 C 
BRANCH  37  38
ATOM     38  C15 UNL A   1      -5.983  -3.238  -0.869  0.00  0.00    +0.180 C 
BRANCH  38  39
ATOM     39  O1  UNL A   1      -6.492  -2.340  -1.854  0.00  0.00    -0.393 OA
ATOM     40  H21 UNL A   1      -6.699  -2.870  -2.644  0.00  0.00    +0.209 HD
ENDBRANCH  38  39
ENDBRANCH  37  38
ENDBRANCH  34  37
ENDBRANCH  32  34
ENDBRANCH   4  32
TORSDOF 8
