REMARK  Name = agan4
REMARK  14 active torsions:
REMARK  status: ('A' for Active; 'I' for Inactive)
REMARK    1  A    between atoms: C1_1  and  N7_30
REMARK    2  A    between atoms: C2_2  and  C9_13
REMARK    3  A    between atoms: N3_7  and  C5_8
REMARK    4  A    between atoms: C5_8  and  C6_9
REMARK    5  A    between atoms: C5_8  and  C7_11
REMARK    6  A    between atoms: C5_8  and  C8_12
REMARK    7  A    between atoms: C6_9  and  O1_10
REMARK    8  A    between atoms: N4_14  and  C10_15
REMARK    9  A    between atoms: C14_19  and  S1_21
REMARK   10  A    between atoms: S1_21  and  N6_22
REMARK   11  A    between atoms: N6_22  and  C15_23
REMARK   12  A    between atoms: C15_23  and  C16_24
REMARK   13  A    between atoms: C15_23  and  C17_25
REMARK   14  A    between atoms: C15_23  and  C18_26
REMARK                            x       y       z     vdW  Elec       q    Type
REMARK                         _______ _______ _______ _____ _____    ______ ____
ROOT
ATOM      1  C1  UNL A   1      -1.827   0.070  -0.018  0.00  0.00    +0.154 A 
ATOM      2  C2  UNL A   1      -0.464   0.027  -0.370  0.00  0.00    +0.166 A 
ATOM      3  N1  UNL A   1       0.151  -1.122  -0.804  0.00  0.00    -0.244 NA
ATOM      4  C3  UNL A   1      -0.646  -2.212  -0.861  0.00  0.00    +0.155 A 
ATOM      5  C4  UNL A   1      -2.001  -2.212  -0.525  0.00  0.00    +0.140 A 
ATOM      6  N2  UNL A   1      -2.572  -1.073  -0.095  0.00  0.00    -0.214 NA
ATOM      7  N3  UNL A   1      -2.722  -3.409  -0.610  0.00  0.00    -0.321 N 
ATOM      8  H2  UNL A   1      -2.567  -3.810  -1.535  0.00  0.00    +0.148 HD
ENDROOT
BRANCH   1   9
ATOM      9  N7  UNL A   1      -2.483   1.240   0.406  0.00  0.00    -0.313 N 
ATOM     10  C19 UNL A   1      -2.822   2.110  -0.740  0.00  0.00    +0.107 C 
ATOM     11  C20 UNL A   1      -3.316   3.470  -0.229  0.00  0.00    +0.026 C 
ATOM     12  C21 UNL A   1      -4.468   3.293   0.740  0.00  0.00    -0.026 C 
ATOM     13  C22 UNL A   1      -4.154   2.315   1.857  0.00  0.00    +0.026 C 
ATOM     14  C23 UNL A   1      -3.642   0.986   1.284  0.00  0.00    +0.107 C 
ATOM     15  C24 UNL A   1      -5.886   3.380   0.219  0.00  0.00    +0.007 C 
ATOM     16  C25 UNL A   1      -5.328   4.494   1.060  0.00  0.00    +0.007 C 
ENDBRANCH   1   9
BRANCH   2  17
ATOM     17  C9  UNL A   1       0.479   1.208  -0.276  0.00  0.00    +0.271 C 
ATOM     18  N4  UNL A   1       1.767   0.868  -0.646  0.00  0.00    -0.265 N 
ATOM     19  O4  UNL A   1       0.130   2.325   0.079  0.00  0.00    -0.268 OA
ATOM     20  H12 UNL A   1       1.906  -0.099  -0.924  0.00  0.00    +0.157 HD
BRANCH  18  21
ATOM     21  C10 UNL A   1       2.908   1.662  -0.704  0.00  0.00    +0.127 A 
ATOM     22  C11 UNL A   1       2.933   3.014  -0.378  0.00  0.00    +0.044 A 
ATOM     23  C12 UNL A   1       4.134   3.724  -0.468  0.00  0.00    +0.007 A 
ATOM     24  C13 UNL A   1       5.285   3.072  -0.883  0.00  0.00    +0.049 A 
ATOM     25  C14 UNL A   1       5.156   1.732  -1.195  0.00  0.00    +0.195 A 
ATOM     26  N5  UNL A   1       4.010   0.996  -1.104  0.00  0.00    -0.212 NA
BRANCH  25  27
ATOM     27  S1  UNL A   1       6.588   0.769  -1.673  0.00  0.00    +0.076 S 
ATOM     28  O2  UNL A   1       7.744   1.310  -0.992  0.00  0.00    -0.152 OA
ATOM     29  O3  UNL A   1       6.539   0.658  -3.115  0.00  0.00    -0.152 OA
BRANCH  27  30
ATOM     30  N6  UNL A   1       6.221  -0.771  -1.044  0.00  0.00    -0.183 NA
ATOM     31  H16 UNL A   1       5.224  -0.918  -1.242  0.00  0.00    +0.149 HD
BRANCH  30  32
ATOM     32  C15 UNL A   1       6.565  -1.166   0.354  0.00  0.00    +0.032 C 
ATOM     33  C16 UNL A   1       5.830  -2.496   0.615  0.00  0.00    +0.029 C 
ATOM     34  C17 UNL A   1       6.101  -0.147   1.396  0.00  0.00    +0.029 C 
ATOM     35  C18 UNL A   1       8.072  -1.426   0.465  0.00  0.00    +0.029 C 
ENDBRANCH  30  32
ENDBRANCH  27  30
ENDBRANCH  25  27
ENDBRANCH  18  21
ENDBRANCH   2  17
BRANCH   7  36
ATOM     36  C5  UNL A   1      -4.162  -3.475  -0.242  0.00  0.00    +0.051 C 
ATOM     37  C7  UNL A   1      -4.381  -3.124   1.239  0.00  0.00    +0.033 C 
ATOM     38  C8  UNL A   1      -5.033  -2.611  -1.163  0.00  0.00    +0.033 C 
BRANCH  36  39
ATOM     39  C6  UNL A   1      -4.579  -4.966  -0.451  0.00  0.00    +0.180 C 
BRANCH  39  40
ATOM     40  O1  UNL A   1      -3.721  -5.845   0.280  0.00  0.00    -0.393 OA
ATOM     41  H5  UNL A   1      -2.861  -5.384   0.338  0.00  0.00    +0.209 HD
ENDBRANCH  39  40
ENDBRANCH  36  39
ENDBRANCH   7  36
TORSDOF 9
