agan5
     RDKit          3D

 77 82  0  0  0  0  0  0  0  0999 V2000
    0.9908   -1.7962   -0.3647 C   0  0  0  0  0  0  0  0  0  0  0  0
    1.3739   -3.1415   -0.2515 C   0  0  0  0  0  0  0  0  0  0  0  0
    2.7184   -3.4813   -0.3080 C   0  0  0  0  0  0  0  0  0  0  0  0
    3.7227   -2.5342   -0.5029 C   0  0  0  0  0  0  0  0  0  0  0  0
    3.3665   -1.1947   -0.5731 C   0  0  0  0  0  0  0  0  0  0  0  0
    2.0163   -0.8023   -0.5359 C   0  0  0  0  0  0  0  0  0  0  0  0
    1.6689    0.5743   -0.6559 N   0  0  0  0  0  0  0  0  0  0  0  0
    2.1675    1.2258   -1.8974 C   0  0  0  0  0  0  0  0  0  0  0  0
    3.1855    2.3359   -1.6177 C   0  0  0  0  0  0  0  0  0  0  0  0
    2.6262    3.3704   -0.6570 C   0  0  0  0  0  0  0  0  0  0  0  0
    1.6990    2.8075    0.4072 C   0  0  0  0  0  0  0  0  0  0  0  0
    1.9361    1.3078    0.6082 C   0  0  0  0  0  0  0  0  0  0  0  0
    2.3257    4.7608   -1.1808 C   0  0  0  0  0  0  0  0  0  0  0  0
    3.5160    4.5433   -0.2962 C   0  0  0  0  0  0  0  0  0  0  0  0
    5.0795   -2.9899   -0.4517 N   0  0  0  0  0  0  0  0  0  0  0  0
    6.3259   -2.2193   -1.2767 S   0  0  0  0  0  0  0  0  0  0  0  0
    7.0205   -1.1607   -0.0233 C   0  0  0  0  0  0  0  0  0  0  0  0
    7.5854   -1.9473    1.1375 C   0  0  0  0  0  0  0  0  0  0  0  0
    8.0814   -1.0359    2.1153 O   0  0  0  0  0  0  0  0  0  0  0  0
    5.7853   -1.4008   -2.3391 O   0  0  0  0  0  0  0  0  0  0  0  0
    7.2931   -3.2596   -1.5589 O   0  0  0  0  0  0  0  0  0  0  0  0
    0.5085   -4.1442   -0.0893 N   0  0  0  0  0  0  0  0  0  0  0  0
   -0.7855   -3.8195   -0.0480 C   0  0  0  0  0  0  0  0  0  0  0  0
   -1.2900   -2.5911   -0.1448 N   0  0  0  0  0  0  0  0  0  0  0  0
   -0.4139   -1.5798   -0.3044 C   0  0  0  0  0  0  0  0  0  0  0  0
   -0.8946   -0.2508   -0.3822 N   0  0  0  0  0  0  0  0  0  0  0  0
   -2.1760    0.3224   -0.3538 C   0  0  0  0  0  0  0  0  0  0  0  0
   -2.3128    1.6618   -0.7499 C   0  0  0  0  0  0  0  0  0  0  0  0
   -3.5521    2.3102   -0.7244 C   0  0  0  0  0  0  0  0  0  0  0  0
   -4.6795    1.5943   -0.3090 C   0  0  0  0  0  0  0  0  0  0  0  0
   -4.5898    0.2577    0.1101 C   0  0  0  0  0  0  0  0  0  0  0  0
   -3.3240   -0.3528    0.0809 C   0  0  0  0  0  0  0  0  0  0  0  0
   -5.7675   -0.4005    0.5271 N   0  0  0  0  0  0  0  0  0  0  0  0
   -5.7638   -1.8690    0.4367 C   0  0  0  0  0  0  0  0  0  0  0  0
   -7.1884   -2.3748    0.5899 C   0  0  0  0  0  0  0  0  0  0  0  0
   -7.7708   -1.8546    1.8852 C   0  0  0  0  0  0  0  0  0  0  0  0
   -7.6933   -0.3501    2.0214 C   0  0  0  0  0  0  0  0  0  0  0  0
   -6.2603    0.1136    1.8182 C   0  0  0  0  0  0  0  0  0  0  0  0
   -9.0688   -2.2460    1.9822 F   0  0  0  0  0  0  0  0  0  0  0  0
   -7.1271   -2.4348    2.9340 F   0  0  0  0  0  0  0  0  0  0  0  0
   -3.6824    3.7254   -1.2010 C   0  0  0  0  0  0  0  0  0  0  0  0
    2.9771   -4.5330   -0.2036 H   0  0  0  0  0  0  0  0  0  0  0  0
    4.1250   -0.4273   -0.6704 H   0  0  0  0  0  0  0  0  0  0  0  0
    2.5870    0.5012   -2.6064 H   0  0  0  0  0  0  0  0  0  0  0  0
    1.2943    1.6668   -2.3947 H   0  0  0  0  0  0  0  0  0  0  0  0
    4.0960    1.9067   -1.1824 H   0  0  0  0  0  0  0  0  0  0  0  0
    3.4785    2.8025   -2.5657 H   0  0  0  0  0  0  0  0  0  0  0  0
    1.8423    3.3270    1.3616 H   0  0  0  0  0  0  0  0  0  0  0  0
    0.6597    2.9744    0.0994 H   0  0  0  0  0  0  0  0  0  0  0  0
    2.9670    1.1465    0.9500 H   0  0  0  0  0  0  0  0  0  0  0  0
    1.2634    0.9403    1.3925 H   0  0  0  0  0  0  0  0  0  0  0  0
    2.5060    4.9792   -2.2279 H   0  0  0  0  0  0  0  0  0  0  0  0
    1.4816    5.3027   -0.7669 H   0  0  0  0  0  0  0  0  0  0  0  0
    3.4772    4.9453    0.7105 H   0  0  0  0  0  0  0  0  0  0  0  0
    4.5000    4.6090   -0.7487 H   0  0  0  0  0  0  0  0  0  0  0  0
    5.2128   -4.0031   -0.4880 H   0  0  0  0  0  0  0  0  0  0  0  0
    7.8095   -0.5706   -0.5025 H   0  0  0  0  0  0  0  0  0  0  0  0
    6.2549   -0.4522    0.3051 H   0  0  0  0  0  0  0  0  0  0  0  0
    8.4106   -2.5910    0.8168 H   0  0  0  0  0  0  0  0  0  0  0  0
    6.8222   -2.5712    1.6120 H   0  0  0  0  0  0  0  0  0  0  0  0
    8.4837   -1.5664    2.8262 H   0  0  0  0  0  0  0  0  0  0  0  0
   -1.4926   -4.6319    0.0778 H   0  0  0  0  0  0  0  0  0  0  0  0
   -0.1572    0.3590   -0.7408 H   0  0  0  0  0  0  0  0  0  0  0  0
   -1.4385    2.2091   -1.0945 H   0  0  0  0  0  0  0  0  0  0  0  0
   -5.6547    2.0762   -0.3274 H   0  0  0  0  0  0  0  0  0  0  0  0
   -3.2207   -1.3726    0.4290 H   0  0  0  0  0  0  0  0  0  0  0  0
   -5.3866   -2.1954   -0.5405 H   0  0  0  0  0  0  0  0  0  0  0  0
   -5.1278   -2.3093    1.2154 H   0  0  0  0  0  0  0  0  0  0  0  0
   -7.1971   -3.4703    0.5867 H   0  0  0  0  0  0  0  0  0  0  0  0
   -7.8070   -2.0450   -0.2535 H   0  0  0  0  0  0  0  0  0  0  0  0
   -8.3552    0.1213    1.2848 H   0  0  0  0  0  0  0  0  0  0  0  0
   -8.0461   -0.0441    3.0124 H   0  0  0  0  0  0  0  0  0  0  0  0
   -6.2514    1.2097    1.8527 H   0  0  0  0  0  0  0  0  0  0  0  0
   -5.6210   -0.2440    2.6363 H   0  0  0  0  0  0  0  0  0  0  0  0
   -3.8847    3.7413   -2.2763 H   0  0  0  0  0  0  0  0  0  0  0  0
   -4.4965    4.2399   -0.6797 H   0  0  0  0  0  0  0  0  0  0  0  0
   -2.7645    4.2897   -1.0050 H   0  0  0  0  0  0  0  0  0  0  0  0
  1  2  1  0
  2  3  2  0
  3  4  1  0
  4  5  2  0
  5  6  1  0
  6  7  1  0
  7  8  1  0
  8  9  1  0
  9 10  1  0
 10 11  1  0
 11 12  1  0
 10 13  1  0
 13 14  1  0
  4 15  1  0
 15 16  1  0
 16 17  1  0
 17 18  1  0
 18 19  1  0
 16 20  2  0
 16 21  2  0
  2 22  1  0
 22 23  2  0
 23 24  1  0
 24 25  2  0
 25 26  1  0
 26 27  1  0
 27 28  2  0
 28 29  1  0
 29 30  2  0
 30 31  1  0
 31 32  2  0
 31 33  1  0
 33 34  1  0
 34 35  1  0
 35 36  1  0
 36 37  1  0
 37 38  1  0
 36 39  1  0
 36 40  1  0
 29 41  1  0
  6  1  2  0
 12  7  1  0
 32 27  1  0
 38 33  1  0
 25  1  1  0
 14 10  1  0
  3 42  1  0
  5 43  1  0
  8 44  1  0
  8 45  1  0
  9 46  1  0
  9 47  1  0
 11 48  1  0
 11 49  1  0
 12 50  1  0
 12 51  1  0
 13 52  1  0
 13 53  1  0
 14 54  1  0
 14 55  1  0
 15 56  1  0
 17 57  1  0
 17 58  1  0
 18 59  1  0
 18 60  1  0
 19 61  1  0
 23 62  1  0
 26 63  1  0
 28 64  1  0
 30 65  1  0
 32 66  1  0
 34 67  1  0
 34 68  1  0
 35 69  1  0
 35 70  1  0
 37 71  1  0
 37 72  1  0
 38 73  1  0
 38 74  1  0
 41 75  1  0
 41 76  1  0
 41 77  1  0
M  END
$$$$
