agan10
     RDKit          3D

 70 75  0  0  0  0  0  0  0  0999 V2000
   -0.9550   -1.3973   -0.0272 C   0  0  0  0  0  0  0  0  0  0  0  0
   -1.4364   -2.6041    0.5274 C   0  0  0  0  0  0  0  0  0  0  0  0
   -2.5991   -2.6388    1.2976 C   0  0  0  0  0  0  0  0  0  0  0  0
   -3.2926   -1.4617    1.5388 C   0  0  0  0  0  0  0  0  0  0  0  0
   -2.8328   -0.2603    1.0000 C   0  0  0  0  0  0  0  0  0  0  0  0
   -1.6630   -0.1961    0.2117 C   0  0  0  0  0  0  0  0  0  0  0  0
   -1.3300    1.0913   -0.2477 N   0  0  0  0  0  0  0  0  0  0  0  0
   -1.0921    1.2527   -1.6921 C   0  0  0  0  0  0  0  0  0  0  0  0
   -1.1541    2.7460   -2.0454 C   0  0  0  0  0  0  0  0  0  0  0  0
   -0.1778    3.5368   -1.1922 C   0  0  0  0  0  0  0  0  0  0  0  0
   -0.3384    3.2738    0.2944 C   0  0  0  0  0  0  0  0  0  0  0  0
   -0.3195    1.7669    0.5917 C   0  0  0  0  0  0  0  0  0  0  0  0
    1.2042    3.8282   -1.7362 C   0  0  0  0  0  0  0  0  0  0  0  0
    0.1905    4.9340   -1.6381 C   0  0  0  0  0  0  0  0  0  0  0  0
   -4.5025   -1.4766    2.2963 N   0  0  0  0  0  0  0  0  0  0  0  0
   -5.8914   -2.0743    1.5306 S   0  0  0  0  0  0  0  0  0  0  0  0
   -6.1162   -3.6130    2.3938 C   0  0  0  0  0  0  0  0  0  0  0  0
   -7.3726   -4.3017    1.9065 C   0  0  0  0  0  0  0  0  0  0  0  0
   -7.5265   -5.5359    2.6032 O   0  0  0  0  0  0  0  0  0  0  0  0
   -6.9616   -1.1848    1.9311 O   0  0  0  0  0  0  0  0  0  0  0  0
   -5.6239   -2.3533    0.1377 O   0  0  0  0  0  0  0  0  0  0  0  0
    0.2946   -1.4612   -0.7908 C   0  0  0  0  0  0  0  0  0  0  0  0
    1.4433   -0.9569   -0.4016 N   0  0  0  0  0  0  0  0  0  0  0  0
    2.4350   -1.1793   -1.3560 C   0  0  0  0  0  0  0  0  0  0  0  0
    1.9966   -1.8877   -2.4791 C   0  0  0  0  0  0  0  0  0  0  0  0
    0.3260   -2.2727   -2.3032 S   0  0  0  0  0  0  0  0  0  0  0  0
    2.8439   -2.2009   -3.5527 C   0  0  0  0  0  0  0  0  0  0  0  0
    4.1687   -1.7814   -3.4868 C   0  0  0  0  0  0  0  0  0  0  0  0
    4.6289   -1.0693   -2.3832 C   0  0  0  0  0  0  0  0  0  0  0  0
    3.7952   -0.7385   -1.2875 C   0  0  0  0  0  0  0  0  0  0  0  0
    4.4028   -0.0037   -0.2213 N   0  0  0  0  0  0  0  0  0  0  0  0
    3.7537   -0.1682    1.0911 C   0  0  0  0  0  0  0  0  0  0  0  0
    4.6565    0.4342    2.1556 C   0  0  0  0  0  0  0  0  0  0  0  0
    4.9272    1.8832    1.8126 C   0  0  0  0  0  0  0  0  0  0  0  0
    5.4908    2.0797    0.4220 C   0  0  0  0  0  0  0  0  0  0  0  0
    4.5880    1.4092   -0.6008 C   0  0  0  0  0  0  0  0  0  0  0  0
    3.7762    2.5995    1.9340 F   0  0  0  0  0  0  0  0  0  0  0  0
    5.7900    2.4069    2.7226 F   0  0  0  0  0  0  0  0  0  0  0  0
   -0.8923   -3.5336    0.3659 H   0  0  0  0  0  0  0  0  0  0  0  0
   -2.9399   -3.5833    1.7088 H   0  0  0  0  0  0  0  0  0  0  0  0
   -3.3897    0.6588    1.1693 H   0  0  0  0  0  0  0  0  0  0  0  0
   -1.8539    0.7175   -2.2711 H   0  0  0  0  0  0  0  0  0  0  0  0
   -0.1065    0.8726   -1.9773 H   0  0  0  0  0  0  0  0  0  0  0  0
   -0.9442    2.8774   -3.1134 H   0  0  0  0  0  0  0  0  0  0  0  0
   -2.1670    3.1270   -1.8644 H   0  0  0  0  0  0  0  0  0  0  0  0
   -1.2953    3.6994    0.6218 H   0  0  0  0  0  0  0  0  0  0  0  0
    0.4502    3.7691    0.8731 H   0  0  0  0  0  0  0  0  0  0  0  0
   -0.5308    1.6181    1.6578 H   0  0  0  0  0  0  0  0  0  0  0  0
    0.6800    1.3700    0.3870 H   0  0  0  0  0  0  0  0  0  0  0  0
    1.4629    3.4625   -2.7236 H   0  0  0  0  0  0  0  0  0  0  0  0
    2.0408    3.8520   -1.0469 H   0  0  0  0  0  0  0  0  0  0  0  0
   -0.2364    5.3148   -2.5595 H   0  0  0  0  0  0  0  0  0  0  0  0
    0.3426    5.6966   -0.8820 H   0  0  0  0  0  0  0  0  0  0  0  0
   -4.7342   -0.5873    2.7450 H   0  0  0  0  0  0  0  0  0  0  0  0
   -5.2406   -4.2443    2.2182 H   0  0  0  0  0  0  0  0  0  0  0  0
   -6.1805   -3.4035    3.4661 H   0  0  0  0  0  0  0  0  0  0  0  0
   -7.3175   -4.5159    0.8343 H   0  0  0  0  0  0  0  0  0  0  0  0
   -8.2595   -3.6875    2.0924 H   0  0  0  0  0  0  0  0  0  0  0  0
   -8.3431   -5.9507    2.2719 H   0  0  0  0  0  0  0  0  0  0  0  0
    2.4783   -2.7563   -4.4113 H   0  0  0  0  0  0  0  0  0  0  0  0
    4.8515   -2.0157   -4.3003 H   0  0  0  0  0  0  0  0  0  0  0  0
    5.6764   -0.7726   -2.3539 H   0  0  0  0  0  0  0  0  0  0  0  0
    2.7833    0.3396    1.1254 H   0  0  0  0  0  0  0  0  0  0  0  0
    3.6061   -1.2307    1.3196 H   0  0  0  0  0  0  0  0  0  0  0  0
    4.1743    0.3643    3.1367 H   0  0  0  0  0  0  0  0  0  0  0  0
    5.6023   -0.1170    2.2192 H   0  0  0  0  0  0  0  0  0  0  0  0
    5.5753    3.1489    0.1987 H   0  0  0  0  0  0  0  0  0  0  0  0
    6.5026    1.6595    0.3718 H   0  0  0  0  0  0  0  0  0  0  0  0
    3.6179    1.9204   -0.6499 H   0  0  0  0  0  0  0  0  0  0  0  0
    5.0603    1.5053   -1.5860 H   0  0  0  0  0  0  0  0  0  0  0  0
  1  2  2  0
  2  3  1  0
  3  4  2  0
  4  5  1  0
  5  6  2  0
  6  7  1  0
  7  8  1  0
  8  9  1  0
  9 10  1  0
 10 11  1  0
 11 12  1  0
 10 13  1  0
 13 14  1  0
  4 15  1  0
 15 16  1  0
 16 17  1  0
 17 18  1  0
 18 19  1  0
 16 20  2  0
 16 21  2  0
  1 22  1  0
 22 23  2  0
 23 24  1  0
 24 25  2  0
 25 26  1  0
 25 27  1  0
 27 28  2  0
 28 29  1  0
 29 30  2  0
 30 31  1  0
 31 32  1  0
 32 33  1  0
 33 34  1  0
 34 35  1  0
 35 36  1  0
 34 37  1  0
 34 38  1  0
  6  1  1  0
 12  7  1  0
 26 22  1  0
 36 31  1  0
 14 10  1  0
 30 24  1  0
  2 39  1  0
  3 40  1  0
  5 41  1  0
  8 42  1  0
  8 43  1  0
  9 44  1  0
  9 45  1  0
 11 46  1  0
 11 47  1  0
 12 48  1  0
 12 49  1  0
 13 50  1  0
 13 51  1  0
 14 52  1  0
 14 53  1  0
 15 54  1  0
 17 55  1  0
 17 56  1  0
 18 57  1  0
 18 58  1  0
 19 59  1  0
 27 60  1  0
 28 61  1  0
 29 62  1  0
 32 63  1  0
 32 64  1  0
 33 65  1  0
 33 66  1  0
 35 67  1  0
 35 68  1  0
 36 69  1  0
 36 70  1  0
M  END
$$$$
