agan1
     RDKit          3D

 73 77  0  0  0  0  0  0  0  0999 V2000
    4.3956   -0.7258    4.6532 C   0  0  0  0  0  0  0  0  0  0  0  0
    3.6582   -0.8189    3.3520 C   0  0  0  0  0  0  0  0  0  0  0  0
    2.3802   -0.3238    3.2426 C   0  0  0  0  0  0  0  0  0  0  0  0
    1.7894   -0.4523    2.0111 C   0  0  0  0  0  0  0  0  0  0  0  0
    2.4137   -1.0251    0.9662 N   0  0  0  0  0  0  0  0  0  0  0  0
    3.6607   -1.4884    1.1405 C   0  0  0  0  0  0  0  0  0  0  0  0
    4.2983   -1.3974    2.3176 N   0  0  0  0  0  0  0  0  0  0  0  0
    4.3364   -2.0618    0.0485 N   0  0  0  0  0  0  0  0  0  0  0  0
    3.4376   -2.5269   -1.0096 C   0  0  0  0  0  0  0  0  0  0  0  0
    4.2395   -2.9260   -2.2365 C   0  0  0  0  0  0  0  0  0  0  0  0
    5.3137   -3.9139   -1.8496 C   0  0  0  0  0  0  0  0  0  0  0  0
    6.2196   -3.3986   -0.7569 C   0  0  0  0  0  0  0  0  0  0  0  0
    5.3946   -2.9919    0.4530 C   0  0  0  0  0  0  0  0  0  0  0  0
    6.0585   -4.2166   -2.9449 F   0  0  0  0  0  0  0  0  0  0  0  0
    4.7376   -5.0792   -1.4533 F   0  0  0  0  0  0  0  0  0  0  0  0
    0.4979   -0.0085    1.7243 N   0  0  0  0  0  0  0  0  0  0  0  0
   -0.4114    0.6110    2.5422 C   0  0  0  0  0  0  0  0  0  0  0  0
   -0.2240    0.8829    3.7253 O   0  0  0  0  0  0  0  0  0  0  0  0
   -1.7348    0.9688    1.9137 C   0  0  0  0  0  0  0  0  0  0  0  0
   -2.0986    0.6762    0.5737 C   0  0  0  0  0  0  0  0  0  0  0  0
   -3.3811    1.0608    0.1278 C   0  0  0  0  0  0  0  0  0  0  0  0
   -4.2735    1.7219    0.9730 C   0  0  0  0  0  0  0  0  0  0  0  0
   -3.9097    2.0241    2.2774 C   0  0  0  0  0  0  0  0  0  0  0  0
   -2.6525    1.6419    2.7460 C   0  0  0  0  0  0  0  0  0  0  0  0
   -5.5435    2.1502    0.4868 N   0  0  0  0  0  0  0  0  0  0  0  0
   -5.5853    3.6196   -0.3595 S   0  0  0  0  0  0  0  0  0  0  0  0
   -6.7296    3.5097   -1.2403 O   0  0  0  0  0  0  0  0  0  0  0  0
   -4.2713    3.9261   -0.8775 O   0  0  0  0  0  0  0  0  0  0  0  0
   -6.0066    4.7636    0.9380 C   0  0  0  0  0  0  0  0  0  0  0  0
   -6.1719    6.1564    0.3696 C   0  0  0  0  0  0  0  0  0  0  0  0
   -6.5492    7.0598    1.4061 O   0  0  0  0  0  0  0  0  0  0  0  0
   -1.1920    0.0293   -0.3120 N   0  0  0  0  0  0  0  0  0  0  0  0
   -1.6979   -1.2855   -0.7826 C   0  0  0  0  0  0  0  0  0  0  0  0
   -0.5902   -2.0084   -1.5605 C   0  0  0  0  0  0  0  0  0  0  0  0
   -0.0736   -1.1390   -2.6913 C   0  0  0  0  0  0  0  0  0  0  0  0
   -0.6630   -1.3124   -4.0745 C   0  0  0  0  0  0  0  0  0  0  0  0
    0.7309   -1.7980   -3.7892 C   0  0  0  0  0  0  0  0  0  0  0  0
    0.3334    0.2517   -2.2392 C   0  0  0  0  0  0  0  0  0  0  0  0
   -0.7955    0.9167   -1.4401 C   0  0  0  0  0  0  0  0  0  0  0  0
    3.8511   -1.2625    5.4364 H   0  0  0  0  0  0  0  0  0  0  0  0
    4.5116    0.3217    4.9486 H   0  0  0  0  0  0  0  0  0  0  0  0
    5.3935   -1.1681    4.5683 H   0  0  0  0  0  0  0  0  0  0  0  0
    1.8933    0.1357    4.0897 H   0  0  0  0  0  0  0  0  0  0  0  0
    2.7491   -1.7352   -1.3247 H   0  0  0  0  0  0  0  0  0  0  0  0
    2.8382   -3.3767   -0.6572 H   0  0  0  0  0  0  0  0  0  0  0  0
    4.6984   -2.0427   -2.6972 H   0  0  0  0  0  0  0  0  0  0  0  0
    3.5747   -3.3678   -2.9870 H   0  0  0  0  0  0  0  0  0  0  0  0
    6.7975   -2.5440   -1.1296 H   0  0  0  0  0  0  0  0  0  0  0  0
    6.9416   -4.1714   -0.4709 H   0  0  0  0  0  0  0  0  0  0  0  0
    6.0859   -2.5326    1.1706 H   0  0  0  0  0  0  0  0  0  0  0  0
    4.9585   -3.8810    0.9275 H   0  0  0  0  0  0  0  0  0  0  0  0
    0.2054   -0.1757    0.7633 H   0  0  0  0  0  0  0  0  0  0  0  0
   -3.6765    0.8683   -0.9000 H   0  0  0  0  0  0  0  0  0  0  0  0
   -4.5945    2.5422    2.9424 H   0  0  0  0  0  0  0  0  0  0  0  0
   -2.3850    1.8781    3.7754 H   0  0  0  0  0  0  0  0  0  0  0  0
   -6.0585    1.4492   -0.0509 H   0  0  0  0  0  0  0  0  0  0  0  0
   -5.2116    4.7505    1.6888 H   0  0  0  0  0  0  0  0  0  0  0  0
   -6.9341    4.4243    1.4096 H   0  0  0  0  0  0  0  0  0  0  0  0
   -5.2313    6.5154   -0.0603 H   0  0  0  0  0  0  0  0  0  0  0  0
   -6.9319    6.1928   -0.4180 H   0  0  0  0  0  0  0  0  0  0  0  0
   -7.5030    6.9498    1.5664 H   0  0  0  0  0  0  0  0  0  0  0  0
   -2.5747   -1.1597   -1.4302 H   0  0  0  0  0  0  0  0  0  0  0  0
   -1.9906   -1.9051    0.0739 H   0  0  0  0  0  0  0  0  0  0  0  0
   -0.9737   -2.9637   -1.9378 H   0  0  0  0  0  0  0  0  0  0  0  0
    0.2421   -2.2398   -0.8851 H   0  0  0  0  0  0  0  0  0  0  0  0
   -1.4354   -2.0585   -4.2265 H   0  0  0  0  0  0  0  0  0  0  0  0
   -0.7726   -0.4406   -4.7107 H   0  0  0  0  0  0  0  0  0  0  0  0
    1.5578   -1.2503   -4.2286 H   0  0  0  0  0  0  0  0  0  0  0  0
    0.8933   -2.8696   -3.7464 H   0  0  0  0  0  0  0  0  0  0  0  0
    1.2286    0.1708   -1.6113 H   0  0  0  0  0  0  0  0  0  0  0  0
    0.5967    0.8856   -3.0941 H   0  0  0  0  0  0  0  0  0  0  0  0
   -1.6474    1.1086   -2.1048 H   0  0  0  0  0  0  0  0  0  0  0  0
   -0.4368    1.8793   -1.0553 H   0  0  0  0  0  0  0  0  0  0  0  0
  1  2  1  0
  2  3  2  0
  3  4  1  0
  4  5  2  0
  5  6  1  0
  6  7  2  0
  6  8  1  0
  8  9  1  0
  9 10  1  0
 10 11  1  0
 11 12  1  0
 12 13  1  0
 11 14  1  0
 11 15  1  0
  4 16  1  0
 16 17  1  0
 17 18  2  0
 17 19  1  0
 19 20  1  0
 20 21  2  0
 21 22  1  0
 22 23  2  0
 23 24  1  0
 22 25  1  0
 25 26  1  0
 26 27  2  0
 26 28  2  0
 26 29  1  0
 29 30  1  0
 30 31  1  0
 20 32  1  0
 32 33  1  0
 33 34  1  0
 34 35  1  0
 35 36  1  0
 36 37  1  0
 35 38  1  0
 38 39  1  0
  7  2  1  0
 13  8  1  0
 24 19  2  0
 39 32  1  0
 37 35  1  0
  1 40  1  0
  1 41  1  0
  1 42  1  0
  3 43  1  0
  9 44  1  0
  9 45  1  0
 10 46  1  0
 10 47  1  0
 12 48  1  0
 12 49  1  0
 13 50  1  0
 13 51  1  0
 16 52  1  0
 21 53  1  0
 23 54  1  0
 24 55  1  0
 25 56  1  0
 29 57  1  0
 29 58  1  0
 30 59  1  0
 30 60  1  0
 31 61  1  0
 33 62  1  0
 33 63  1  0
 34 64  1  0
 34 65  1  0
 36 66  1  0
 36 67  1  0
 37 68  1  0
 37 69  1  0
 38 70  1  0
 38 71  1  0
 39 72  1  0
 39 73  1  0
M  END
$$$$
