REMARK  Name = agan8
REMARK  7 active torsions:
REMARK  status: ('A' for Active; 'I' for Inactive)
REMARK    1  A    between atoms: C1_1  and  C16_22
REMARK    2  A    between atoms: C4_4  and  N2_15
REMARK    3  A    between atoms: C6_6  and  N1_7
REMARK    4  A    between atoms: N2_15  and  S1_16
REMARK    5  A    between atoms: S1_16  and  C14_17
REMARK    6  A    between atoms: C14_17  and  C15_18
REMARK    7  A    between atoms: C15_18  and  O1_19
REMARK                            x       y       z     vdW  Elec       q    Type
REMARK                         _______ _______ _______ _____ _____    ______ ____
ROOT
ATOM      1  C1  UNL A   1      -0.623  -0.468  -1.672  0.00  0.00    +0.003 A 
ATOM      2  C2  UNL A   1      -1.107  -1.687  -2.199  0.00  0.00    +0.012 A 
ATOM      3  C3  UNL A   1      -2.471  -1.930  -2.340  0.00  0.00    +0.025 A 
ATOM      4  C4  UNL A   1      -3.381  -0.954  -1.959  0.00  0.00    +0.050 A 
ATOM      5  C5  UNL A   1      -2.926   0.261  -1.443  0.00  0.00    +0.048 A 
ATOM      6  C6  UNL A   1      -1.553   0.533  -1.266  0.00  0.00    +0.039 A 
ENDROOT
BRANCH   1   7
ATOM      7  C16 UNL A   1       0.841  -0.272  -1.641  0.00  0.00    -0.011 A 
ATOM      8  C17 UNL A   1       1.673  -1.120  -0.896  0.00  0.00    +0.052 A 
ATOM      9  C18 UNL A   1       3.057  -0.928  -0.885  0.00  0.00    +0.122 A 
ATOM     10  N3  UNL A   1       3.626   0.060  -1.606  0.00  0.00    -0.240 NA
ATOM     11  C19 UNL A   1       2.821   0.873  -2.324  0.00  0.00    +0.113 A 
ATOM     12  C20 UNL A   1       1.446   0.750  -2.373  0.00  0.00    +0.028 A 
ATOM     13  N4  UNL A   1       3.865  -1.806  -0.121  0.00  0.00    -0.315 N 
ATOM     14  C21 UNL A   1       3.646  -1.607   1.322  0.00  0.00    +0.112 C 
ATOM     15  C22 UNL A   1       4.379  -2.696   2.088  0.00  0.00    +0.094 C 
ATOM     16  C23 UNL A   1       5.840  -2.707   1.694  0.00  0.00    +0.252 C 
ATOM     17  C24 UNL A   1       6.058  -2.821   0.202  0.00  0.00    +0.094 C 
ATOM     18  C25 UNL A   1       5.284  -1.723  -0.510  0.00  0.00    +0.112 C 
ATOM     19  F1  UNL A   1       6.463  -3.740   2.319  0.00  0.00    -0.206 F 
ATOM     20  F2  UNL A   1       6.437  -1.576   2.155  0.00  0.00    -0.206 F 
ENDBRANCH   1   7
BRANCH   6  21
ATOM     21  N1  UNL A   1      -1.133   1.749  -0.704  0.00  0.00    -0.329 N 
ATOM     22  C7  UNL A   1      -0.319   1.657   0.529  0.00  0.00    +0.105 C 
ATOM     23  C8  UNL A   1      -0.788   2.648   1.602  0.00  0.00    +0.026 C 
ATOM     24  C9  UNL A   1      -0.806   4.071   1.074  0.00  0.00    -0.026 C 
ATOM     25  C10 UNL A   1      -1.201   4.189  -0.389  0.00  0.00    +0.026 C 
ATOM     26  C11 UNL A   1      -1.974   2.949  -0.852  0.00  0.00    +0.105 C 
ATOM     27  C12 UNL A   1      -1.223   5.170   2.030  0.00  0.00    +0.007 C 
ATOM     28  C13 UNL A   1       0.211   5.060   1.609  0.00  0.00    +0.007 C 
ENDBRANCH   6  21
BRANCH   4  29
ATOM     29  N2  UNL A   1      -4.771  -1.224  -2.096  0.00  0.00    -0.221 N 
ATOM     30  H16 UNL A   1      -5.052  -1.891  -2.815  0.00  0.00    +0.173 HD
BRANCH  29  31
ATOM     31  S1  UNL A   1      -5.776  -1.265  -0.748  0.00  0.00    +0.045 S 
ATOM     32  O2  UNL A   1      -7.074  -1.647  -1.267  0.00  0.00    -0.155 OA
ATOM     33  O3  UNL A   1      -5.619  -0.053   0.025  0.00  0.00    -0.155 OA
BRANCH  31  34
ATOM     34  C14 UNL A   1      -5.156  -2.655   0.185  0.00  0.00    +0.216 C 
BRANCH  34  35
ATOM     35  C15 UNL A   1      -4.133  -2.247   1.221  0.00  0.00    +0.180 C 
BRANCH  35  36
ATOM     36  O1  UNL A   1      -3.639  -3.419   1.867  0.00  0.00    -0.393 OA
ATOM     37  H21 UNL A   1      -3.033  -3.123   2.569  0.00  0.00    +0.209 HD
ENDBRANCH  35  36
ENDBRANCH  34  35
ENDBRANCH  31  34
ENDBRANCH  29  31
ENDBRANCH   4  29
TORSDOF 7
