REMARK  Name = agan3
REMARK  10 active torsions:
REMARK  status: ('A' for Active; 'I' for Inactive)
REMARK    1  A    between atoms: C4_4  and  N3_33
REMARK    2  A    between atoms: C9_10  and  C10_11
REMARK    3  A    between atoms: C12_13  and  S1_17
REMARK    4  A    between atoms: S1_17  and  N2_18
REMARK    5  A    between atoms: N2_18  and  C16_19
REMARK    6  A    between atoms: C16_19  and  C17_20
REMARK    7  A    between atoms: C16_19  and  C18_21
REMARK    8  A    between atoms: C16_19  and  C19_22
REMARK    9  A    between atoms: N3_33  and  S2_34
REMARK   10  A    between atoms: S2_34  and  C27_35
REMARK                            x       y       z     vdW  Elec       q    Type
REMARK                         _______ _______ _______ _____ _____    ______ ____
ROOT
ATOM      1  C1  UNL A   1      -1.750   1.966  -0.208  0.00  0.00    +0.041 A 
ATOM      2  C2  UNL A   1      -2.436   3.171  -0.159  0.00  0.00    +0.026 A 
ATOM      3  C3  UNL A   1      -3.655   3.223   0.523  0.00  0.00    +0.026 A 
ATOM      4  C4  UNL A   1      -4.162   2.081   1.153  0.00  0.00    +0.048 A 
ATOM      5  C5  UNL A   1      -3.474   0.869   1.095  0.00  0.00    +0.030 A 
ATOM      6  C6  UNL A   1      -2.263   0.823   0.410  0.00  0.00    -0.017 A 
ATOM      7  C7  UNL A   1      -1.379  -0.384   0.175  0.00  0.00    +0.014 C 
ATOM      8  C8  UNL A   1      -0.177   0.274  -0.561  0.00  0.00    +0.125 C 
ATOM      9  N1  UNL A   1      -0.525   1.682  -0.831  0.00  0.00    -0.266 N 
ATOM     10  C9  UNL A   1       0.226   2.579  -1.575  0.00  0.00    +0.251 C 
ATOM     11  O3  UNL A   1      -0.068   3.736  -1.850  0.00  0.00    -0.270 OA
ATOM     12  C20 UNL A   1      -0.940  -1.039   1.501  0.00  0.00    +0.013 C 
ATOM     13  C21 UNL A   1      -0.104  -2.299   1.272  0.00  0.00    +0.008 C 
ATOM     14  C22 UNL A   1      -0.846  -3.271   0.387  0.00  0.00    -0.029 C 
ATOM     15  C23 UNL A   1      -1.277  -2.687  -0.938  0.00  0.00    +0.008 C 
ATOM     16  C24 UNL A   1      -2.100  -1.414  -0.724  0.00  0.00    +0.013 C 
ATOM     17  C25 UNL A   1      -0.425  -4.723   0.417  0.00  0.00    +0.007 C 
ATOM     18  C26 UNL A   1      -1.731  -4.311   1.039  0.00  0.00    +0.007 C 
ENDROOT
BRANCH  10  19
ATOM     19  C10 UNL A   1       1.512   2.079  -2.099  0.00  0.00    +0.039 A 
ATOM     20  C11 UNL A   1       2.626   2.024  -1.260  0.00  0.00    +0.041 A 
ATOM     21  C12 UNL A   1       3.822   1.516  -1.769  0.00  0.00    +0.106 A 
ATOM     22  C13 UNL A   1       3.914   1.088  -3.099  0.00  0.00    +0.028 A 
ATOM     23  C14 UNL A   1       2.797   1.175  -3.933  0.00  0.00    +0.003 A 
ATOM     24  C15 UNL A   1       1.593   1.673  -3.435  0.00  0.00    +0.013 A 
BRANCH  21  25
ATOM     25  S1  UNL A   1       5.234   1.396  -0.704  0.00  0.00    +0.059 S 
ATOM     26  O1  UNL A   1       5.563   2.745  -0.300  0.00  0.00    -0.153 OA
ATOM     27  O2  UNL A   1       6.209   0.523  -1.316  0.00  0.00    -0.153 OA
BRANCH  25  28
ATOM     28  N2  UNL A   1       4.617   0.649   0.666  0.00  0.00    -0.185 NA
ATOM     29  H10 UNL A   1       4.814   1.205   1.500  0.00  0.00    +0.149 HD
BRANCH  28  30
ATOM     30  C16 UNL A   1       4.497  -0.814   0.852  0.00  0.00    +0.032 C 
ATOM     31  C17 UNL A   1       5.868  -1.410   1.184  0.00  0.00    +0.029 C 
ATOM     32  C18 UNL A   1       3.566  -1.014   2.063  0.00  0.00    +0.029 C 
ATOM     33  C19 UNL A   1       3.871  -1.513  -0.357  0.00  0.00    +0.029 C 
ENDBRANCH  28  30
ENDBRANCH  25  28
ENDBRANCH  21  25
ENDBRANCH  10  19
BRANCH   4  34
ATOM     34  N3  UNL A   1      -5.429   2.152   1.802  0.00  0.00    -0.221 N 
ATOM     35  H32 UNL A   1      -5.477   1.680   2.707  0.00  0.00    +0.173 HD
BRANCH  34  36
ATOM     36  S2  UNL A   1      -6.785   1.708   0.889  0.00  0.00    +0.040 S 
ATOM     37  C27 UNL A   1      -7.309   3.281   0.241  0.00  0.00    +0.218 C 
ATOM     38  O4  UNL A   1      -7.772   1.283   1.859  0.00  0.00    -0.155 OA
ATOM     39  O5  UNL A   1      -6.393   0.845  -0.202  0.00  0.00    -0.155 OA
ENDBRANCH  34  36
ENDBRANCH   4  34
TORSDOF 6
