REMARK  Name = agan5
REMARK  9 active torsions:
REMARK  status: ('A' for Active; 'I' for Inactive)
REMARK    1  A    between atoms: C4_4  and  N2_15
REMARK    2  A    between atoms: C6_6  and  N1_7
REMARK    3  A    between atoms: N2_15  and  S1_16
REMARK    4  A    between atoms: S1_16  and  C14_17
REMARK    5  A    between atoms: C14_17  and  C15_18
REMARK    6  A    between atoms: C15_18  and  O1_19
REMARK    7  A    between atoms: N5_26  and  C18_27
REMARK    8  A    between atoms: C20_29  and  C29_41
REMARK    9  A    between atoms: C22_31  and  N6_33
REMARK                            x       y       z     vdW  Elec       q    Type
REMARK                         _______ _______ _______ _____ _____    ______ ____
ROOT
ATOM      1  C1  UNL A   1       0.991  -1.796  -0.365  0.00  0.00    +0.061 A 
ATOM      2  C2  UNL A   1       1.374  -3.142  -0.252  0.00  0.00    +0.080 A 
ATOM      3  C3  UNL A   1       2.718  -3.481  -0.308  0.00  0.00    +0.053 A 
ATOM      4  C4  UNL A   1       3.723  -2.534  -0.503  0.00  0.00    +0.051 A 
ATOM      5  C5  UNL A   1       3.366  -1.195  -0.573  0.00  0.00    +0.048 A 
ATOM      6  C6  UNL A   1       2.016  -0.802  -0.536  0.00  0.00    +0.044 A 
ATOM      7  N3  UNL A   1       0.508  -4.144  -0.089  0.00  0.00    -0.235 NA
ATOM      8  C16 UNL A   1      -0.785  -3.820  -0.048  0.00  0.00    +0.224 A 
ATOM      9  N4  UNL A   1      -1.290  -2.591  -0.145  0.00  0.00    -0.220 NA
ATOM     10  C17 UNL A   1      -0.414  -1.580  -0.304  0.00  0.00    +0.136 A 
ATOM     11  N5  UNL A   1      -0.895  -0.251  -0.382  0.00  0.00    -0.299 N 
ATOM     12  H22 UNL A   1      -0.157   0.359  -0.741  0.00  0.00    +0.154 HD
ENDROOT
BRANCH   6  13
ATOM     13  N1  UNL A   1       1.669   0.574  -0.656  0.00  0.00    -0.329 N 
ATOM     14  C7  UNL A   1       2.167   1.226  -1.897  0.00  0.00    +0.105 C 
ATOM     15  C8  UNL A   1       3.186   2.336  -1.618  0.00  0.00    +0.026 C 
ATOM     16  C9  UNL A   1       2.626   3.370  -0.657  0.00  0.00    -0.026 C 
ATOM     17  C10 UNL A   1       1.699   2.808   0.407  0.00  0.00    +0.026 C 
ATOM     18  C11 UNL A   1       1.936   1.308   0.608  0.00  0.00    +0.105 C 
ATOM     19  C12 UNL A   1       2.326   4.761  -1.181  0.00  0.00    +0.007 C 
ATOM     20  C13 UNL A   1       3.516   4.543  -0.296  0.00  0.00    +0.007 C 
ENDBRANCH   6  13
BRANCH  11  21
ATOM     21  C18 UNL A   1      -2.176   0.322  -0.354  0.00  0.00    +0.034 A 
ATOM     22  C19 UNL A   1      -2.313   1.662  -0.750  0.00  0.00    +0.026 A 
ATOM     23  C20 UNL A   1      -3.552   2.310  -0.724  0.00  0.00    -0.047 A 
ATOM     24  C21 UNL A   1      -4.679   1.594  -0.309  0.00  0.00    +0.026 A 
ATOM     25  C22 UNL A   1      -4.590   0.258   0.110  0.00  0.00    +0.032 A 
ATOM     26  C23 UNL A   1      -3.324  -0.353   0.081  0.00  0.00    +0.046 A 
ATOM     27  C29 UNL A   1      -3.682   3.725  -1.201  0.00  0.00    +0.044 C 
BRANCH  25  28
ATOM     28  N6  UNL A   1      -5.768  -0.401   0.527  0.00  0.00    -0.330 N 
ATOM     29  C24 UNL A   1      -5.764  -1.869   0.437  0.00  0.00    +0.111 C 
ATOM     30  C25 UNL A   1      -7.188  -2.375   0.590  0.00  0.00    +0.094 C 
ATOM     31  C26 UNL A   1      -7.771  -1.855   1.885  0.00  0.00    +0.252 C 
ATOM     32  C27 UNL A   1      -7.693  -0.350   2.021  0.00  0.00    +0.094 C 
ATOM     33  C28 UNL A   1      -6.260   0.114   1.818  0.00  0.00    +0.111 C 
ATOM     34  F1  UNL A   1      -9.069  -2.246   1.982  0.00  0.00    -0.206 F 
ATOM     35  F2  UNL A   1      -7.127  -2.435   2.934  0.00  0.00    -0.206 F 
ENDBRANCH  25  28
ENDBRANCH  11  21
BRANCH   4  36
ATOM     36  N2  UNL A   1       5.080  -2.990  -0.452  0.00  0.00    -0.220 N 
ATOM     37  H15 UNL A   1       5.213  -4.003  -0.488  0.00  0.00    +0.173 HD
BRANCH  36  38
ATOM     38  S1  UNL A   1       6.326  -2.219  -1.277  0.00  0.00    +0.045 S 
ATOM     39  O2  UNL A   1       5.785  -1.401  -2.339  0.00  0.00    -0.155 OA
ATOM     40  O3  UNL A   1       7.293  -3.260  -1.559  0.00  0.00    -0.155 OA
BRANCH  38  41
ATOM     41  C14 UNL A   1       7.021  -1.161  -0.023  0.00  0.00    +0.216 C 
BRANCH  41  42
ATOM     42  C15 UNL A   1       7.585  -1.947   1.137  0.00  0.00    +0.180 C 
BRANCH  42  43
ATOM     43  O1  UNL A   1       8.081  -1.036   2.115  0.00  0.00    -0.393 OA
ATOM     44  H20 UNL A   1       8.484  -1.566   2.826  0.00  0.00    +0.209 HD
ENDBRANCH  42  43
ENDBRANCH  41  42
ENDBRANCH  38  41
ENDBRANCH  36  38
ENDBRANCH   4  36
TORSDOF 8
