agan9
 OpenBabel01042510183D

 36 40  0  0  0  0  0  0  0  0999 V2000
   -3.0270   -0.3290  -12.4220 C   0  0  0  0  0  0  0  0  0  0  0  0
   -2.1800    0.6670  -11.9070 C   0  0  0  0  0  0  0  0  0  0  0  0
   -1.2450    1.2720  -12.7320 C   0  0  0  0  0  3  0  0  0  0  0  0
   -1.1250    0.9470  -14.0810 C   0  0  0  0  0  0  0  0  0  0  0  0
   -1.9250   -0.0630  -14.5970 C   0  0  0  0  0  3  0  0  0  0  0  0
   -2.8970   -0.6990  -13.8100 C   0  0  0  0  0  0  0  0  0  0  0  0
   -2.2120    1.0850  -10.6400 N   0  0  0  0  0  0  0  0  0  0  0  0
   -3.1180    0.5170   -9.8430 C   0  0  0  0  0  3  0  0  0  0  0  0
   -3.9850   -0.4300  -10.1940 N   0  0  0  0  0  0  0  0  0  0  0  0
   -3.9500   -0.8520  -11.4720 C   0  0  0  0  0  0  0  0  0  0  0  0
   -4.8300   -1.8810  -11.8840 N   0  0  0  0  0  0  0  0  0  0  0  0
   -4.8870   -1.8830  -12.9020 H   0  0  0  0  0  0  0  0  0  0  0  0
   -3.7280   -1.6970  -14.3610 N   0  0  0  0  0  0  0  0  0  0  0  0
   -4.7320   -1.2780  -15.3660 C   0  0  0  0  0  2  0  0  0  0  0  0
   -4.2750   -1.4400  -16.8200 C   0  0  0  0  0  2  0  0  0  0  0  0
   -3.6170   -2.7820  -17.0550 C   0  0  0  0  0  0  0  0  0  0  0  0
   -2.5240   -3.0950  -16.0560 C   0  0  0  0  0  2  0  0  0  0  0  0
   -3.0540   -2.9910  -14.6250 C   0  0  0  0  0  2  0  0  0  0  0  0
   -3.4320   -3.2430  -18.4820 C   0  0  0  0  0  2  0  0  0  0  0  0
   -4.4500   -3.9200  -17.6070 C   0  0  0  0  0  2  0  0  0  0  0  0
   -5.8450   -2.6050  -11.2410 C   0  0  0  0  0  0  0  0  0  0  0  0
   -5.9170   -3.9990  -11.2140 C   0  0  0  0  0  3  0  0  0  0  0  0
   -6.9820   -4.6570  -10.5900 C   0  0  0  0  0  3  0  0  0  0  0  0
   -8.0030   -3.9280   -9.9880 C   0  0  0  0  0  3  0  0  0  0  0  0
   -7.9670   -2.5330  -10.0010 C   0  0  0  0  0  0  0  0  0  0  0  0
   -6.8980   -1.8880  -10.6430 C   0  0  0  0  0  3  0  0  0  0  0  0
   -9.0820   -1.7350   -9.3960 C   0  0  0  0  0  1  0  0  0  0  0  0
   -0.0670    1.5650  -14.8220 N   0  0  0  0  0  0  0  0  0  0  0  0
   -0.3450    2.1450  -15.6160 H   0  0  0  0  0  0  0  0  0  0  0  0
    1.3790    0.7740  -15.1590 S   0  0  0  0  0  0  0  0  0  0  0  0
    1.1230   -0.5760  -15.6090 O   0  0  0  0  0  0  0  0  0  0  0  0
    2.1400    1.7010  -15.9680 O   0  0  0  0  0  0  0  0  0  0  0  0
    2.1370    0.7250  -13.5490 C   0  0  0  0  0  2  0  0  0  0  0  0
    3.0890    1.8900  -13.3900 C   0  0  0  0  0  2  0  0  0  0  0  0
    2.3420    3.1050  -13.3970 O   0  0  0  0  0  0  0  0  0  0  0  0
    1.6720    3.0320  -12.6950 H   0  0  0  0  0  0  0  0  0  0  0  0
  1  2  2  0  0  0  0
  1 10  1  0  0  0  0
  2  7  1  0  0  0  0
  3  2  1  0  0  0  0
  4  3  2  0  0  0  0
  5  4  1  0  0  0  0
  5  6  2  0  0  0  0
  6  1  1  0  0  0  0
  7  8  2  0  0  0  0
  9  8  1  0  0  0  0
 10  9  2  0  0  0  0
 11 10  1  0  0  0  0
 11 21  1  0  0  0  0
 12 11  1  0  0  0  0
 13  6  1  0  0  0  0
 14 13  1  0  0  0  0
 15 14  1  0  0  0  0
 16 15  1  0  0  0  0
 16 17  1  0  0  0  0
 17 18  1  0  0  0  0
 18 13  1  0  0  0  0
 19 20  1  0  0  0  0
 19 16  1  0  0  0  0
 20 16  1  0  0  0  0
 21 22  2  0  0  0  0
 21 26  1  0  0  0  0
 22 23  1  0  0  0  0
 23 24  2  0  0  0  0
 25 24  1  0  0  0  0
 25 27  1  0  0  0  0
 26 25  2  0  0  0  0
 28  4  1  0  0  0  0
 29 28  1  0  0  0  0
 30 28  1  0  0  0  0
 30 33  1  0  0  0  0
 31 30  2  0  0  0  0
 32 30  2  0  0  0  0
 33 34  1  0  0  0  0
 35 34  1  0  0  0  0
 35 36  1  0  0  0  0
M  END
$$$$
