agan8
 OpenBabel01042510183D

 37 41  0  0  0  0  0  0  0  0999 V2000
   -1.5190   -1.0770  -13.3050 C   0  0  0  0  0  0  0  0  0  0  0  0
   -0.3780   -0.6130  -12.6120 C   0  0  0  0  0  3  0  0  0  0  0  0
    0.8350   -0.4010  -13.2630 C   0  0  0  0  0  3  0  0  0  0  0  0
    0.9290   -0.6450  -14.6260 C   0  0  0  0  0  0  0  0  0  0  0  0
   -0.1880   -1.0950  -15.3330 C   0  0  0  0  0  3  0  0  0  0  0  0
   -1.4250   -1.3420  -14.7020 C   0  0  0  0  0  0  0  0  0  0  0  0
   -2.7800   -1.1900  -12.5430 C   0  0  0  0  0  0  0  0  0  0  0  0
   -3.4660   -2.4090  -12.4490 C   0  0  0  0  0  3  0  0  0  0  0  0
   -4.6520   -2.5030  -11.7160 C   0  0  0  0  0  0  0  0  0  0  0  0
   -5.1520   -1.4320  -11.0650 N   0  0  0  0  0  0  0  0  0  0  0  0
   -4.4860   -0.2600  -11.1570 C   0  0  0  0  0  3  0  0  0  0  0  0
   -3.3160   -0.0910  -11.8720 C   0  0  0  0  0  3  0  0  0  0  0  0
   -5.3160   -3.7520  -11.6430 N   0  0  0  0  0  0  0  0  0  0  0  0
   -5.8840   -4.1280  -12.9490 C   0  0  0  0  0  2  0  0  0  0  0  0
   -6.4080   -5.5520  -12.8690 C   0  0  0  0  0  2  0  0  0  0  0  0
   -7.3910   -5.6740  -11.7250 C   0  0  0  0  0  0  0  0  0  0  0  0
   -6.8330   -5.2030  -10.4020 C   0  0  0  0  0  2  0  0  0  0  0  0
   -6.3040   -3.7850  -10.5490 C   0  0  0  0  0  2  0  0  0  0  0  0
   -7.7840   -6.9700  -11.6110 F   0  0  0  0  0  0  0  0  0  0  0  0
   -8.5140   -4.9680  -12.0220 F   0  0  0  0  0  0  0  0  0  0  0  0
   -2.5150   -1.8360  -15.4360 N   0  0  0  0  0  0  0  0  0  0  0  0
   -2.3250   -3.1500  -16.0920 C   0  0  0  0  0  2  0  0  0  0  0  0
   -2.8280   -3.1460  -17.5410 C   0  0  0  0  0  2  0  0  0  0  0  0
   -4.2790   -2.7090  -17.6240 C   0  0  0  0  0  0  0  0  0  0  0  0
   -4.6690   -1.6440  -16.6110 C   0  0  0  0  0  2  0  0  0  0  0  0
   -3.4340   -0.8950  -16.0980 C   0  0  0  0  0  2  0  0  0  0  0  0
   -4.9280   -2.6810  -18.9930 C   0  0  0  0  0  2  0  0  0  0  0  0
   -5.3290   -3.7340  -18.0050 C   0  0  0  0  0  2  0  0  0  0  0  0
    2.1780   -0.4370  -15.2740 N   0  0  0  0  0  0  0  0  0  0  0  0
    2.6400   -1.2510  -15.6780 H   0  0  0  0  0  0  0  0  0  0  0  0
    2.4710    0.9720  -16.1460 S   0  0  0  0  0  0  0  0  0  0  0  0
    3.7920    1.3960  -15.7290 O   0  0  0  0  0  0  0  0  0  0  0  0
    1.3410    1.8670  -16.0360 O   0  0  0  0  0  0  0  0  0  0  0  0
    2.6140    0.3910  -17.8280 C   0  0  0  0  0  2  0  0  0  0  0  0
    4.0530    0.2170  -18.2600 C   0  0  0  0  0  2  0  0  0  0  0  0
    4.7190   -0.6180  -17.3150 O   0  0  0  0  0  0  0  0  0  0  0  0
    5.6740   -0.5360  -17.4860 H   0  0  0  0  0  0  0  0  0  0  0  0
  1  2  1  0  0  0  0
  1  7  1  0  0  0  0
  3  2  2  0  0  0  0
  4  3  1  0  0  0  0
  5  6  1  0  0  0  0
  5  4  2  0  0  0  0
  6  1  2  0  0  0  0
  7  8  2  0  0  0  0
  7 12  1  0  0  0  0
  8  9  1  0  0  0  0
  9 13  1  0  0  0  0
  9 10  2  0  0  0  0
 11 10  1  0  0  0  0
 12 11  2  0  0  0  0
 13 18  1  0  0  0  0
 14 15  1  0  0  0  0
 14 13  1  0  0  0  0
 15 16  1  0  0  0  0
 16 19  1  0  0  0  0
 16 17  1  0  0  0  0
 18 17  1  0  0  0  0
 20 16  1  0  0  0  0
 21  6  1  0  0  0  0
 22 21  1  0  0  0  0
 23 22  1  0  0  0  0
 24 23  1  0  0  0  0
 24 25  1  0  0  0  0
 25 26  1  0  0  0  0
 26 21  1  0  0  0  0
 27 28  1  0  0  0  0
 27 24  1  0  0  0  0
 28 24  1  0  0  0  0
 29  4  1  0  0  0  0
 30 29  1  0  0  0  0
 31 33  2  0  0  0  0
 31 32  2  0  0  0  0
 31 29  1  0  0  0  0
 34 31  1  0  0  0  0
 35 34  1  0  0  0  0
 35 36  1  0  0  0  0
 37 36  1  0  0  0  0
M  END
$$$$
