MODEL 1
REMARK VINA RESULT:    -7.335      0.000      0.000
REMARK INTER + INTRA:         -11.486
REMARK INTER:                 -10.122
REMARK INTRA:                  -1.363
REMARK UNBOUND:                -1.363
REMARK  Name = agan9
REMARK  8 active torsions:
REMARK  status: ('A' for Active; 'I' for Inactive)
REMARK    1  A    between atoms: C4_4  and  N2_15
REMARK    2  A    between atoms: C6_6  and  N1_7
REMARK    3  A    between atoms: N2_15  and  S1_16
REMARK    4  A    between atoms: S1_16  and  C14_17
REMARK    5  A    between atoms: C14_17  and  C15_18
REMARK    6  A    between atoms: C15_18  and  O1_19
REMARK    7  A    between atoms: N5_26  and  C18_27
REMARK    8  A    between atoms: C22_31  and  C24_33
REMARK                            x       y       z     vdW  Elec       q    Type
REMARK                         _______ _______ _______ _____ _____    ______ ____
ROOT
ATOM      1  C1  UNL A   1      -3.027  -0.329 -12.422  0.00  0.00    +0.061 A 
ATOM      2  C2  UNL A   1      -2.180   0.667 -11.907  0.00  0.00    +0.080 A 
ATOM      3  C3  UNL A   1      -1.245   1.272 -12.732  0.00  0.00    +0.053 A 
ATOM      4  C4  UNL A   1      -1.125   0.947 -14.081  0.00  0.00    +0.051 A 
ATOM      5  C5  UNL A   1      -1.925  -0.063 -14.597  0.00  0.00    +0.048 A 
ATOM      6  C6  UNL A   1      -2.897  -0.699 -13.810  0.00  0.00    +0.044 A 
ATOM      7  N3  UNL A   1      -2.212   1.085 -10.640  0.00  0.00    -0.235 NA
ATOM      8  C16 UNL A   1      -3.118   0.517  -9.843  0.00  0.00    +0.224 A 
ATOM      9  N4  UNL A   1      -3.985  -0.430 -10.194  0.00  0.00    -0.220 NA
ATOM     10  C17 UNL A   1      -3.950  -0.852 -11.472  0.00  0.00    +0.136 A 
ATOM     11  N5  UNL A   1      -4.830  -1.881 -11.884  0.00  0.00    -0.299 N 
ATOM     12  H22 UNL A   1      -4.887  -1.883 -12.902  0.00  0.00    +0.154 HD
ENDROOT
BRANCH   6  13
ATOM     13  N1  UNL A   1      -3.728  -1.697 -14.361  0.00  0.00    -0.329 N 
ATOM     14  C7  UNL A   1      -4.732  -1.278 -15.366  0.00  0.00    +0.105 C 
ATOM     15  C8  UNL A   1      -4.275  -1.440 -16.820  0.00  0.00    +0.026 C 
ATOM     16  C9  UNL A   1      -3.617  -2.782 -17.055  0.00  0.00    -0.026 C 
ATOM     17  C10 UNL A   1      -2.524  -3.095 -16.056  0.00  0.00    +0.026 C 
ATOM     18  C11 UNL A   1      -3.054  -2.991 -14.625  0.00  0.00    +0.105 C 
ATOM     19  C12 UNL A   1      -3.432  -3.243 -18.482  0.00  0.00    +0.007 C 
ATOM     20  C13 UNL A   1      -4.450  -3.920 -17.607  0.00  0.00    +0.007 C 
ENDBRANCH   6  13
BRANCH  11  21
ATOM     21  C18 UNL A   1      -5.845  -2.605 -11.241  0.00  0.00    +0.033 A 
ATOM     22  C19 UNL A   1      -5.917  -3.999 -11.214  0.00  0.00    +0.023 A 
ATOM     23  C20 UNL A   1      -6.982  -4.657 -10.590  0.00  0.00    +0.002 A 
ATOM     24  C21 UNL A   1      -8.003  -3.928  -9.988  0.00  0.00    +0.003 A 
ATOM     25  C22 UNL A   1      -7.967  -2.533 -10.001  0.00  0.00    -0.049 A 
ATOM     26  C23 UNL A   1      -6.898  -1.888 -10.643  0.00  0.00    +0.026 A 
ATOM     27  C24 UNL A   1      -9.082  -1.735  -9.396  0.00  0.00    +0.044 C 
ENDBRANCH  11  21
BRANCH   4  28
ATOM     28  N2  UNL A   1      -0.067   1.565 -14.822  0.00  0.00    -0.220 N 
ATOM     29  H15 UNL A   1      -0.345   2.145 -15.616  0.00  0.00    +0.173 HD
BRANCH  28  30
ATOM     30  S1  UNL A   1       1.379   0.774 -15.159  0.00  0.00    +0.045 S 
ATOM     31  O2  UNL A   1       1.123  -0.576 -15.609  0.00  0.00    -0.155 OA
ATOM     32  O3  UNL A   1       2.140   1.701 -15.968  0.00  0.00    -0.155 OA
BRANCH  30  33
ATOM     33  C14 UNL A   1       2.137   0.725 -13.549  0.00  0.00    +0.216 C 
BRANCH  33  34
ATOM     34  C15 UNL A   1       3.089   1.890 -13.390  0.00  0.00    +0.180 C 
BRANCH  34  35
ATOM     35  O1  UNL A   1       2.342   3.105 -13.397  0.00  0.00    -0.393 OA
ATOM     36  H20 UNL A   1       1.672   3.032 -12.695  0.00  0.00    +0.209 HD
ENDBRANCH  34  35
ENDBRANCH  33  34
ENDBRANCH  30  33
ENDBRANCH  28  30
ENDBRANCH   4  28
TORSDOF 7
ENDMDL