MODEL 1
REMARK VINA RESULT:    -8.045      0.000      0.000
REMARK INTER + INTRA:         -13.498
REMARK INTER:                 -12.043
REMARK INTRA:                  -1.456
REMARK UNBOUND:                -1.456
REMARK  Name = agan2
REMARK  9 active torsions:
REMARK  status: ('A' for Active; 'I' for Inactive)
REMARK    1  A    between atoms: C1_1  and  N4_31
REMARK    2  A    between atoms: C2_2  and  C9_14
REMARK    3  A    between atoms: C5_5  and  N1_7
REMARK    4  A    between atoms: N1_7  and  S1_8
REMARK    5  A    between atoms: S1_8  and  C7_9
REMARK    6  A    between atoms: C7_9  and  C8_10
REMARK    7  A    between atoms: C8_10  and  O1_11
REMARK    8  A    between atoms: N2_15  and  C10_16
REMARK    9  A    between atoms: C14_20  and  N3_22
REMARK                            x       y       z     vdW  Elec       q    Type
REMARK                         _______ _______ _______ _____ _____    ______ ____
ROOT
ATOM      1  C1  UNL A   1      -0.979  -0.790 -14.752  0.00  0.00    +0.044 A 
ATOM      2  C2  UNL A   1      -1.103  -0.062 -13.543  0.00  0.00    +0.058 A 
ATOM      3  C3  UNL A   1       0.049   0.484 -12.946  0.00  0.00    +0.017 A 
ATOM      4  C4  UNL A   1       1.311   0.316 -13.519  0.00  0.00    +0.025 A 
ATOM      5  C5  UNL A   1       1.443  -0.412 -14.695  0.00  0.00    +0.050 A 
ATOM      6  C6  UNL A   1       0.310  -0.948 -15.308  0.00  0.00    +0.048 A 
ENDROOT
BRANCH   1   7
ATOM      7  N4  UNL A   1      -2.105  -1.395 -15.376  0.00  0.00    -0.329 N 
ATOM      8  C21 UNL A   1      -1.819  -2.825 -15.680  0.00  0.00    +0.105 C 
ATOM      9  C22 UNL A   1      -2.976  -3.438 -16.475  0.00  0.00    +0.026 C 
ATOM     10  C23 UNL A   1      -3.168  -2.719 -17.800  0.00  0.00    -0.026 C 
ATOM     11  C24 UNL A   1      -2.575  -1.323 -17.849  0.00  0.00    +0.026 C 
ATOM     12  C25 UNL A   1      -2.703  -0.616 -16.495  0.00  0.00    +0.105 C 
ATOM     13  C26 UNL A   1      -4.446  -2.994 -18.568  0.00  0.00    +0.007 C 
ATOM     14  C27 UNL A   1      -3.144  -3.534 -19.077  0.00  0.00    +0.007 C 
ENDBRANCH   1   7
BRANCH   2  15
ATOM     15  C9  UNL A   1      -2.407   0.206 -12.833  0.00  0.00    +0.250 C 
ATOM     16  N2  UNL A   1      -2.455  -0.170 -11.509  0.00  0.00    -0.281 N 
ATOM     17  O4  UNL A   1      -3.326   0.717 -13.469  0.00  0.00    -0.270 OA
ATOM     18  H10 UNL A   1      -1.581  -0.554 -11.151  0.00  0.00    +0.155 HD
BRANCH  16  19
ATOM     19  C10 UNL A   1      -3.521  -0.064 -10.595  0.00  0.00    +0.035 A 
ATOM     20  C11 UNL A   1      -3.319   0.755  -9.481  0.00  0.00    +0.023 A 
ATOM     21  C12 UNL A   1      -4.324   0.911  -8.530  0.00  0.00    +0.004 A 
ATOM     22  C13 UNL A   1      -5.540   0.249  -8.693  0.00  0.00    +0.023 A 
ATOM     23  C14 UNL A   1      -5.782  -0.577  -9.802  0.00  0.00    +0.031 A 
ATOM     24  C15 UNL A   1      -4.748  -0.722 -10.743  0.00  0.00    +0.046 A 
BRANCH  23  25
ATOM     25  N3  UNL A   1      -7.032  -1.224  -9.906  0.00  0.00    -0.330 N 
ATOM     26  C16 UNL A   1      -6.966  -2.431 -10.752  0.00  0.00    +0.111 C 
ATOM     27  C17 UNL A   1      -8.378  -2.848 -11.133  0.00  0.00    +0.094 C 
ATOM     28  C18 UNL A   1      -9.217  -3.018  -9.886  0.00  0.00    +0.252 C 
ATOM     29  C19 UNL A   1      -9.211  -1.802  -8.985  0.00  0.00    +0.094 C 
ATOM     30  C20 UNL A   1      -7.778  -1.424  -8.652  0.00  0.00    +0.111 C 
ATOM     31  F1  UNL A   1     -10.497  -3.303 -10.246  0.00  0.00    -0.206 F 
ATOM     32  F2  UNL A   1      -8.775  -4.098  -9.190  0.00  0.00    -0.206 F 
ENDBRANCH  23  25
ENDBRANCH  16  19
ENDBRANCH   2  15
BRANCH   5  33
ATOM     33  N1  UNL A   1       2.745  -0.578 -15.249  0.00  0.00    -0.221 N 
ATOM     34  H4  UNL A   1       3.127  -1.522 -15.297  0.00  0.00    +0.173 HD
BRANCH  33  35
ATOM     35  S1  UNL A   1       3.299   0.433 -16.472  0.00  0.00    +0.045 S 
ATOM     36  O2  UNL A   1       2.340   1.515 -16.544  0.00  0.00    -0.155 OA
ATOM     37  O3  UNL A   1       3.609  -0.356 -17.644  0.00  0.00    -0.155 OA
BRANCH  35  38
ATOM     38  C7  UNL A   1       4.822   1.091 -15.815  0.00  0.00    +0.216 C 
BRANCH  38  39
ATOM     39  C8  UNL A   1       4.707   1.428 -14.346  0.00  0.00    +0.180 C 
BRANCH  39  40
ATOM     40  O1  UNL A   1       6.014   1.535 -13.792  0.00  0.00    -0.393 OA
ATOM     41  H9  UNL A   1       5.916   1.649 -12.829  0.00  0.00    +0.209 HD
ENDBRANCH  39  40
ENDBRANCH  38  39
ENDBRANCH  35  38
ENDBRANCH  33  35
ENDBRANCH   5  33
TORSDOF 9
ENDMDL