MODEL 1
REMARK VINA RESULT:    -7.897      0.000      0.000
REMARK INTER + INTRA:         -12.895
REMARK INTER:                 -11.360
REMARK INTRA:                  -1.535
REMARK UNBOUND:                -1.535
REMARK  Name = agan7
REMARK  9 active torsions:
REMARK  status: ('A' for Active; 'I' for Inactive)
REMARK    1  A    between atoms: C1_1  and  C17_22
REMARK    2  A    between atoms: C4_4  and  N1_15
REMARK    3  A    between atoms: C6_6  and  C7_7
REMARK    4  A    between atoms: N1_15  and  S1_16
REMARK    5  A    between atoms: S1_16  and  C15_17
REMARK    6  A    between atoms: C15_17  and  C16_18
REMARK    7  A    between atoms: C16_18  and  O1_19
REMARK    8  A    between atoms: N2_23  and  C18_24
REMARK    9  A    between atoms: C20_26  and  C27_38
REMARK                            x       y       z     vdW  Elec       q    Type
REMARK                         _______ _______ _______ _____ _____    ______ ____
ROOT
ATOM      1  C1  UNL A   1      -1.053  -1.157 -13.602  0.00  0.00    +0.041 A 
ATOM      2  C2  UNL A   1       0.117  -0.733 -12.949  0.00  0.00    +0.015 A 
ATOM      3  C3  UNL A   1       1.289  -0.514 -13.669  0.00  0.00    +0.025 A 
ATOM      4  C4  UNL A   1       1.307  -0.732 -15.042  0.00  0.00    +0.048 A 
ATOM      5  C5  UNL A   1       0.141  -1.147 -15.696  0.00  0.00    +0.029 A 
ATOM      6  C6  UNL A   1      -1.068  -1.365 -14.996  0.00  0.00    -0.030 A 
ENDROOT
BRANCH   6   7
ATOM      7  C7  UNL A   1      -2.268  -1.819 -15.821  0.00  0.00    +0.020 C 
ATOM      8  C8  UNL A   1      -2.379  -1.058 -17.155  0.00  0.00    +0.009 C 
ATOM      9  C9  UNL A   1      -3.666  -1.427 -17.897  0.00  0.00    +0.007 C 
ATOM     10  C10 UNL A   1      -3.783  -2.927 -18.057  0.00  0.00    -0.029 C 
ATOM     11  C11 UNL A   1      -3.695  -3.687 -16.753  0.00  0.00    +0.007 C 
ATOM     12  C12 UNL A   1      -2.394  -3.341 -16.027  0.00  0.00    +0.009 C 
ATOM     13  C13 UNL A   1      -4.696  -3.461 -19.136  0.00  0.00    +0.007 C 
ATOM     14  C14 UNL A   1      -3.205  -3.566 -19.301  0.00  0.00    +0.007 C 
ENDBRANCH   6   7
BRANCH   1  15
ATOM     15  C17 UNL A   1      -2.231  -1.374 -12.734  0.00  0.00    +0.250 C 
ATOM     16  N2  UNL A   1      -2.662  -0.228 -12.111  0.00  0.00    -0.266 N 
ATOM     17  O4  UNL A   1      -2.697  -2.499 -12.630  0.00  0.00    -0.270 OA
ATOM     18  H23 UNL A   1      -2.183   0.644 -12.290  0.00  0.00    +0.157 HD
BRANCH  16  19
ATOM     19  C18 UNL A   1      -3.756  -0.074 -11.255  0.00  0.00    +0.131 A 
ATOM     20  C19 UNL A   1      -3.645   0.118  -9.901  0.00  0.00    +0.067 A 
ATOM     21  C20 UNL A   1      -4.830   0.237  -9.215  0.00  0.00    +0.045 A 
ATOM     22  N3  UNL A   1      -6.028   0.170  -9.829  0.00  0.00    -0.220 NA
ATOM     23  C21 UNL A   1      -6.060  -0.014 -11.157  0.00  0.00    +0.220 A 
ATOM     24  N4  UNL A   1      -4.940  -0.140 -11.886  0.00  0.00    -0.199 NA
ATOM     25  N5  UNL A   1      -7.305  -0.113 -11.802  0.00  0.00    -0.299 N 
ATOM     26  C22 UNL A   1      -8.405   0.470 -11.026  0.00  0.00    +0.114 C 
ATOM     27  C23 UNL A   1      -9.735   0.127 -11.673  0.00  0.00    +0.094 C 
ATOM     28  C24 UNL A   1      -9.718   0.524 -13.130  0.00  0.00    +0.252 C 
ATOM     29  C25 UNL A   1      -8.570  -0.092 -13.894  0.00  0.00    +0.094 C 
ATOM     30  C26 UNL A   1      -7.253   0.256 -13.219  0.00  0.00    +0.114 C 
ATOM     31  F1  UNL A   1     -10.890   0.155 -13.710  0.00  0.00    -0.206 F 
ATOM     32  F2  UNL A   1      -9.658   1.877 -13.233  0.00  0.00    -0.206 F 
ATOM     33  C27 UNL A   1      -4.827   0.443  -7.731  0.00  0.00    +0.066 C 
ENDBRANCH  16  19
ENDBRANCH   1  15
BRANCH   4  34
ATOM     34  N1  UNL A   1       2.501  -0.528 -15.800  0.00  0.00    -0.221 N 
ATOM     35  H17 UNL A   1       3.334  -0.979 -15.405  0.00  0.00    +0.173 HD
BRANCH  34  36
ATOM     36  S1  UNL A   1       2.897   1.059 -16.257  0.00  0.00    +0.045 S 
ATOM     37  O2  UNL A   1       3.184   1.027 -17.677  0.00  0.00    -0.155 OA
ATOM     38  O3  UNL A   1       1.923   1.988 -15.725  0.00  0.00    -0.155 OA
BRANCH  36  39
ATOM     39  C15 UNL A   1       4.442   1.317 -15.397  0.00  0.00    +0.216 C 
BRANCH  39  40
ATOM     40  C16 UNL A   1       4.246   1.415 -13.897  0.00  0.00    +0.180 C 
BRANCH  40  41
ATOM     41  O1  UNL A   1       3.584   2.631 -13.549  0.00  0.00    -0.393 OA
ATOM     42  H22 UNL A   1       2.666   2.547 -13.873  0.00  0.00    +0.209 HD
ENDBRANCH  40  41
ENDBRANCH  39  40
ENDBRANCH  36  39
ENDBRANCH  34  36
ENDBRANCH   4  34
TORSDOF 8
ENDMDL