MODEL 1
REMARK VINA RESULT:    -7.955      0.000      0.000
REMARK INTER + INTRA:         -13.090
REMARK INTER:                 -11.442
REMARK INTRA:                  -1.648
REMARK UNBOUND:                -1.648
REMARK  Name = agan6
REMARK  8 active torsions:
REMARK  status: ('A' for Active; 'I' for Inactive)
REMARK    1  A    between atoms: C1_1  and  C16_22
REMARK    2  A    between atoms: C4_4  and  N2_15
REMARK    3  A    between atoms: C6_6  and  N1_7
REMARK    4  A    between atoms: N2_15  and  S1_16
REMARK    5  A    between atoms: S1_16  and  C14_17
REMARK    6  A    between atoms: C14_17  and  C15_18
REMARK    7  A    between atoms: C15_18  and  O1_19
REMARK    8  A    between atoms: C22_30  and  N4_31
REMARK                            x       y       z     vdW  Elec       q    Type
REMARK                         _______ _______ _______ _____ _____    ______ ____
ROOT
ATOM      1  C1  UNL A   1      -1.306  -0.216 -12.880  0.00  0.00    +0.028 A 
ATOM      2  C2  UNL A   1      -0.057  -0.782 -12.550  0.00  0.00    +0.014 A 
ATOM      3  C3  UNL A   1       0.946  -0.924 -13.507  0.00  0.00    +0.025 A 
ATOM      4  C4  UNL A   1       0.711  -0.499 -14.808  0.00  0.00    +0.050 A 
ATOM      5  C5  UNL A   1      -0.529   0.035 -15.162  0.00  0.00    +0.048 A 
ATOM      6  C6  UNL A   1      -1.562   0.184 -14.217  0.00  0.00    +0.041 A 
ENDROOT
BRANCH   1   7
ATOM      7  C16 UNL A   1      -2.288  -0.078 -11.792  0.00  0.00    +0.111 A 
ATOM      8  S2  UNL A   1      -3.707  -1.040 -11.765  0.00  0.00    -0.065 S 
ATOM      9  C17 UNL A   1      -4.235  -0.268 -10.310  0.00  0.00    +0.060 A 
ATOM     10  C18 UNL A   1      -3.292   0.715  -9.984  0.00  0.00    +0.081 A 
ATOM     11  N3  UNL A   1      -2.210   0.827 -10.841  0.00  0.00    -0.239 NA
ATOM     12  C19 UNL A   1      -3.492   1.512  -8.840  0.00  0.00    +0.029 A 
ATOM     13  C20 UNL A   1      -4.617   1.315  -8.043  0.00  0.00    +0.004 A 
ATOM     14  C21 UNL A   1      -5.540   0.332  -8.379  0.00  0.00    +0.024 A 
ATOM     15  C22 UNL A   1      -5.390  -0.494  -9.514  0.00  0.00    +0.046 A 
BRANCH  15  16
ATOM     16  N4  UNL A   1      -6.412  -1.455  -9.725  0.00  0.00    -0.329 N 
ATOM     17  C23 UNL A   1      -7.488  -0.969 -10.602  0.00  0.00    +0.111 C 
ATOM     18  C24 UNL A   1      -8.338  -2.159 -11.019  0.00  0.00    +0.094 C 
ATOM     19  C25 UNL A   1      -8.830  -2.887  -9.786  0.00  0.00    +0.252 C 
ATOM     20  C26 UNL A   1      -7.723  -3.290  -8.833  0.00  0.00    +0.094 C 
ATOM     21  C27 UNL A   1      -6.888  -2.070  -8.478  0.00  0.00    +0.111 C 
ATOM     22  F1  UNL A   1      -9.724  -2.101  -9.127  0.00  0.00    -0.206 F 
ATOM     23  F2  UNL A   1      -9.518  -3.996 -10.165  0.00  0.00    -0.206 F 
ENDBRANCH  15  16
ENDBRANCH   1   7
BRANCH   6  24
ATOM     24  N1  UNL A   1      -2.834   0.651 -14.608  0.00  0.00    -0.329 N 
ATOM     25  C7  UNL A   1      -3.417  -0.177 -15.691  0.00  0.00    +0.105 C 
ATOM     26  C8  UNL A   1      -4.699   0.464 -16.234  0.00  0.00    +0.026 C 
ATOM     27  C9  UNL A   1      -4.417   1.843 -16.807  0.00  0.00    -0.026 C 
ATOM     28  C10 UNL A   1      -3.242   2.560 -16.163  0.00  0.00    +0.026 C 
ATOM     29  C11 UNL A   1      -3.045   2.108 -14.712  0.00  0.00    +0.105 C 
ATOM     30  C12 UNL A   1      -4.654   2.078 -18.285  0.00  0.00    +0.007 C 
ATOM     31  C13 UNL A   1      -5.601   2.662 -17.280  0.00  0.00    +0.007 C 
ENDBRANCH   6  24
BRANCH   4  32
ATOM     32  N2  UNL A   1       1.710  -0.682 -15.813  0.00  0.00    -0.221 N 
ATOM     33  H16 UNL A   1       1.394  -1.204 -16.633  0.00  0.00    +0.173 HD
BRANCH  32  34
ATOM     34  S1  UNL A   1       2.526   0.704 -16.347  0.00  0.00    +0.045 S 
ATOM     35  O2  UNL A   1       3.091   1.400 -15.214  0.00  0.00    -0.155 OA
ATOM     36  O3  UNL A   1       1.593   1.370 -17.233  0.00  0.00    -0.155 OA
BRANCH  34  37
ATOM     37  C14 UNL A   1       3.844   0.035 -17.342  0.00  0.00    +0.216 C 
BRANCH  37  38
ATOM     38  C15 UNL A   1       3.496   0.029 -18.814  0.00  0.00    +0.180 C 
BRANCH  38  39
ATOM     39  O1  UNL A   1       3.547   1.366 -19.308  0.00  0.00    -0.393 OA
ATOM     40  H21 UNL A   1       2.929   1.893 -18.771  0.00  0.00    +0.209 HD
ENDBRANCH  38  39
ENDBRANCH  37  38
ENDBRANCH  34  37
ENDBRANCH  32  34
ENDBRANCH   4  32
TORSDOF 8
ENDMDL