@<TRIPOS>MOLECULE
agan1
 73 77 0 0 0
SMALL
GASTEIGER

@<TRIPOS>ATOM
      1 C1           4.3956   -0.7258    4.6532 C.3     1  UNL1       -0.0221
      2 C2           3.6582   -0.8189    3.3520 C.ar    1  UNL1        0.0451
      3 C3           2.3802   -0.3238    3.2426 C.ar    1  UNL1       -0.0003
      4 C4           1.7894   -0.4523    2.0111 C.ar    1  UNL1        0.1305
      5 N1           2.4137   -1.0251    0.9662 N.ar    1  UNL1       -0.1992
      6 C5           3.6607   -1.4884    1.1405 C.ar    1  UNL1        0.2197
      7 N2           4.2983   -1.3974    2.3176 N.ar    1  UNL1       -0.2195
      8 N3           4.3364   -2.0618    0.0485 N.pl3   1  UNL1       -0.2992
      9 C6           3.4376   -2.5269   -1.0096 C.3     1  UNL1        0.0203
     10 C7           4.2395   -2.9260   -2.2365 C.3     1  UNL1        0.0266
     11 C8           5.3137   -3.9139   -1.8496 C.3     1  UNL1        0.2518
     12 C9           6.2196   -3.3986   -0.7569 C.3     1  UNL1        0.0266
     13 C10          5.3946   -2.9919    0.4530 C.3     1  UNL1        0.0203
     14 F1           6.0585   -4.2166   -2.9449 F       1  UNL1       -0.2056
     15 F2           4.7376   -5.0792   -1.4533 F       1  UNL1       -0.2056
     16 N4           0.4979   -0.0085    1.7243 N.am    1  UNL1       -0.2662
     17 C11         -0.4114    0.6110    2.5422 C.2     1  UNL1        0.2511
     18 O1          -0.2240    0.8829    3.7253 O.2     1  UNL1       -0.2697
     19 C12         -1.7348    0.9688    1.9137 C.ar    1  UNL1        0.0581
     20 C13         -2.0986    0.6762    0.5737 C.ar    1  UNL1        0.0437
     21 C14         -3.3811    1.0608    0.1278 C.ar    1  UNL1       -0.0175
     22 C15         -4.2735    1.7219    0.9730 C.ar    1  UNL1        0.0495
     23 C16         -3.9097    2.0241    2.2774 C.ar    1  UNL1       -0.0385
     24 C17         -2.6525    1.6419    2.7460 C.ar    1  UNL1       -0.0460
     25 N5          -5.5435    2.1502    0.4868 N.pl3   1  UNL1       -0.2205
     26 S1          -5.5853    3.6196   -0.3595 S.O2    1  UNL1        0.0453
     27 O2          -6.7296    3.5097   -1.2403 O.2     1  UNL1       -0.1551
     28 O3          -4.2713    3.9261   -0.8775 O.2     1  UNL1       -0.1551
     29 C18         -6.0066    4.7636    0.9380 C.3     1  UNL1        0.1078
     30 C19         -6.1719    6.1564    0.3696 C.3     1  UNL1        0.0653
     31 O4          -6.5492    7.0598    1.4061 O.3     1  UNL1       -0.3933
     32 N6          -1.1920    0.0293   -0.3120 N.pl3   1  UNL1       -0.3292
     33 C20         -1.6979   -1.2855   -0.7826 C.3     1  UNL1        0.0127
     34 C21         -0.5902   -2.0084   -1.5605 C.3     1  UNL1       -0.0315
     35 C22         -0.0736   -1.1390   -2.6913 C.3     1  UNL1       -0.0264
     36 C23         -0.6630   -1.3124   -4.0745 C.3     1  UNL1       -0.0468
     37 C24          0.7309   -1.7980   -3.7892 C.3     1  UNL1       -0.0468
     38 C25          0.3334    0.2517   -2.2392 C.3     1  UNL1       -0.0315
     39 C26         -0.7955    0.9167   -1.4401 C.3     1  UNL1        0.0127
     40 H1           3.8511   -1.2625    5.4364 H       1  UNL1        0.0293
     41 H2           4.5116    0.3217    4.9486 H       1  UNL1        0.0293
     42 H3           5.3935   -1.1681    4.5683 H       1  UNL1        0.0293
     43 H4           1.8933    0.1357    4.0897 H       1  UNL1        0.0670
     44 H5           2.7491   -1.7352   -1.3247 H       1  UNL1        0.0466
     45 H6           2.8382   -3.3767   -0.6572 H       1  UNL1        0.0466
     46 H7           4.6984   -2.0427   -2.6972 H       1  UNL1        0.0338
     47 H8           3.5747   -3.3678   -2.9870 H       1  UNL1        0.0338
     48 H9           6.7975   -2.5440   -1.1296 H       1  UNL1        0.0338
     49 H10          6.9416   -4.1714   -0.4709 H       1  UNL1        0.0338
     50 H11          6.0859   -2.5326    1.1706 H       1  UNL1        0.0466
     51 H12          4.9585   -3.8810    0.9275 H       1  UNL1        0.0466
     52 H13          0.2054   -0.1757    0.7633 H       1  UNL1        0.1566
     53 H14         -3.6765    0.8683   -0.9000 H       1  UNL1        0.0655
     54 H15         -4.5945    2.5422    2.9424 H       1  UNL1        0.0637
     55 H16         -2.3850    1.8781    3.7754 H       1  UNL1        0.0626
     56 H17         -6.0585    1.4492   -0.0509 H       1  UNL1        0.1733
     57 H18         -5.2116    4.7505    1.6888 H       1  UNL1        0.0541
     58 H19         -6.9341    4.4243    1.4096 H       1  UNL1        0.0541
     59 H20         -5.2313    6.5154   -0.0603 H       1  UNL1        0.0574
     60 H21         -6.9319    6.1928   -0.4180 H       1  UNL1        0.0574
     61 H22         -7.5030    6.9498    1.5664 H       1  UNL1        0.2095
     62 H23         -2.5747   -1.1597   -1.4302 H       1  UNL1        0.0464
     63 H24         -1.9906   -1.9051    0.0739 H       1  UNL1        0.0464
     64 H25         -0.9737   -2.9637   -1.9378 H       1  UNL1        0.0286
     65 H26          0.2421   -2.2398   -0.8851 H       1  UNL1        0.0286
     66 H27         -1.4354   -2.0585   -4.2265 H       1  UNL1        0.0271
     67 H28         -0.7726   -0.4406   -4.7107 H       1  UNL1        0.0271
     68 H29          1.5578   -1.2503   -4.2286 H       1  UNL1        0.0271
     69 H30          0.8933   -2.8696   -3.7464 H       1  UNL1        0.0271
     70 H31          1.2286    0.1708   -1.6113 H       1  UNL1        0.0286
     71 H32          0.5967    0.8856   -3.0941 H       1  UNL1        0.0286
     72 H33         -1.6474    1.1086   -2.1048 H       1  UNL1        0.0464
     73 H34         -0.4368    1.8793   -1.0553 H       1  UNL1        0.0464
@<TRIPOS>BOND
     1     1     2    1
     2     2     3   ar
     3     3     4   ar
     4     4     5   ar
     5     5     6   ar
     6     6     7   ar
     7     6     8    1
     8     8     9    1
     9     9    10    1
    10    10    11    1
    11    11    12    1
    12    12    13    1
    13    11    14    1
    14    11    15    1
    15     4    16    1
    16    16    17   am
    17    17    18    2
    18    17    19    1
    19    19    20   ar
    20    20    21   ar
    21    21    22   ar
    22    22    23   ar
    23    23    24   ar
    24    22    25    1
    25    25    26    1
    26    26    27    2
    27    26    28    2
    28    26    29    1
    29    29    30    1
    30    30    31    1
    31    20    32    1
    32    32    33    1
    33    33    34    1
    34    34    35    1
    35    35    36    1
    36    36    37    1
    37    35    38    1
    38    38    39    1
    39     7     2   ar
    40    13     8    1
    41    24    19   ar
    42    39    32    1
    43    37    35    1
    44     1    40    1
    45     1    41    1
    46     1    42    1
    47     3    43    1
    48     9    44    1
    49     9    45    1
    50    10    46    1
    51    10    47    1
    52    12    48    1
    53    12    49    1
    54    13    50    1
    55    13    51    1
    56    16    52    1
    57    21    53    1
    58    23    54    1
    59    24    55    1
    60    25    56    1
    61    29    57    1
    62    29    58    1
    63    30    59    1
    64    30    60    1
    65    31    61    1
    66    33    62    1
    67    33    63    1
    68    34    64    1
    69    34    65    1
    70    36    66    1
    71    36    67    1
    72    37    68    1
    73    37    69    1
    74    38    70    1
    75    38    71    1
    76    39    72    1
    77    39    73    1
