@<TRIPOS>MOLECULE
agan7
 74 78 0 0 0
SMALL
GASTEIGER

@<TRIPOS>ATOM
      1 C1          -1.2471    1.3386   -0.0947 C.ar    1  UNL1        0.0406
      2 C2          -1.1100    2.6868    0.2802 C.ar    1  UNL1       -0.0476
      3 C3          -2.0374    3.2804    1.1340 C.ar    1  UNL1       -0.0386
      4 C4          -3.1139    2.5390    1.6056 C.ar    1  UNL1        0.0480
      5 C5          -3.2478    1.1954    1.2396 C.ar    1  UNL1       -0.0352
      6 C6          -2.3174    0.5590    0.3861 C.ar    1  UNL1       -0.0304
      7 C7          -2.5746   -0.9080    0.0586 C.3     1  UNL1       -0.0150
      8 C8          -3.2399   -1.0903   -1.3183 C.3     1  UNL1       -0.0457
      9 C9          -3.6188   -2.5528   -1.5613 C.3     1  UNL1       -0.0468
     10 C10         -2.4258   -3.4587   -1.3530 C.3     1  UNL1       -0.0291
     11 C11         -1.7742   -3.3061    0.0032 C.3     1  UNL1       -0.0468
     12 C12         -1.3665   -1.8488    0.2312 C.3     1  UNL1       -0.0457
     13 C13         -2.4538   -4.8327   -1.9825 C.3     1  UNL1       -0.0469
     14 C14         -1.5453   -3.7737   -2.5423 C.3     1  UNL1       -0.0469
     15 N1          -4.0858    3.1303    2.4708 N.pl3   1  UNL1       -0.2206
     16 S1          -5.0834    4.3498    1.8377 S.O2    1  UNL1        0.0453
     17 C15         -6.2713    3.4060    0.8942 C.3     1  UNL1        0.1078
     18 C16         -7.1914    2.5992    1.7875 C.3     1  UNL1        0.0653
     19 O1          -6.4847    1.5261    2.4085 O.3     1  UNL1       -0.3933
     20 O2          -5.7838    4.9429    2.9586 O.2     1  UNL1       -0.1551
     21 O3          -4.3335    5.1804    0.9200 O.2     1  UNL1       -0.1551
     22 C17         -0.2126    0.8214   -1.0191 C.2     1  UNL1        0.2496
     23 N2           1.0230    0.6954   -0.4319 N.am    1  UNL1       -0.2662
     24 C18          2.2019    0.2124   -1.0063 C.ar    1  UNL1        0.1305
     25 C19          2.2993   -0.2137   -2.3065 C.ar    1  UNL1       -0.0003
     26 C20          3.5363   -0.6695   -2.6955 C.ar    1  UNL1        0.0451
     27 N3           4.5903   -0.6967   -1.8568 N.ar    1  UNL1       -0.2195
     28 C21          4.4226   -0.2587   -0.5997 C.ar    1  UNL1        0.2197
     29 N4           3.2412    0.1962   -0.1546 N.ar    1  UNL1       -0.1992
     30 N5           5.5096   -0.3096    0.2898 N.pl3   1  UNL1       -0.2992
     31 C22          6.8078   -0.3859   -0.3880 C.3     1  UNL1        0.0203
     32 C23          7.9062   -0.6662    0.6243 C.3     1  UNL1        0.0266
     33 C24          7.8441    0.3439    1.7451 C.3     1  UNL1        0.2518
     34 C25          6.4914    0.3956    2.4148 C.3     1  UNL1        0.0266
     35 C26          5.4108    0.6638    1.3804 C.3     1  UNL1        0.0203
     36 F1           8.7914    0.0446    2.6719 F       1  UNL1       -0.2056
     37 F2           8.1615    1.5755    1.2667 F       1  UNL1       -0.2056
     38 C27          3.7542   -1.1652   -4.0928 C.3     1  UNL1       -0.0221
     39 O4          -0.5175    0.5733   -2.1762 O.2     1  UNL1       -0.2698
     40 H1          -0.2887    3.2869   -0.1075 H       1  UNL1        0.0626
     41 H2          -1.9179    4.3239    1.4165 H       1  UNL1        0.0637
     42 H3          -4.0955    0.6286    1.6210 H       1  UNL1        0.0639
     43 H4          -3.3091   -1.2627    0.7984 H       1  UNL1        0.0349
     44 H5          -4.1409   -0.4687   -1.3908 H       1  UNL1        0.0271
     45 H6          -2.5687   -0.7620   -2.1177 H       1  UNL1        0.0271
     46 H7          -4.0251   -2.6575   -2.5746 H       1  UNL1        0.0271
     47 H8          -4.4165   -2.8482   -0.8686 H       1  UNL1        0.0271
     48 H9          -0.8895   -3.9479    0.0929 H       1  UNL1        0.0271
     49 H10         -2.4786   -3.6247    0.7812 H       1  UNL1        0.0271
     50 H11         -0.9393   -1.7385    1.2349 H       1  UNL1        0.0271
     51 H12         -0.5750   -1.6122   -0.4840 H       1  UNL1        0.0271
     52 H13         -1.9975   -5.6598   -1.4497 H       1  UNL1        0.0271
     53 H14         -3.3184   -5.1192   -2.5712 H       1  UNL1        0.0271
     54 H15         -1.7977   -3.3406   -3.5042 H       1  UNL1        0.0271
     55 H16         -0.4777   -3.8829   -2.3847 H       1  UNL1        0.0271
     56 H17         -4.6675    2.4526    2.9771 H       1  UNL1        0.1733
     57 H18         -6.8527    4.1375    0.3234 H       1  UNL1        0.0541
     58 H19         -5.7172    2.7783    0.1908 H       1  UNL1        0.0541
     59 H20         -7.9907    2.1591    1.1822 H       1  UNL1        0.0574
     60 H21         -7.6518    3.2109    2.5689 H       1  UNL1        0.0574
     61 H22         -7.1467    1.0173    2.9157 H       1  UNL1        0.2095
     62 H23          1.1355    0.9348    0.5445 H       1  UNL1        0.1566
     63 H24          1.4708   -0.2065   -2.9994 H       1  UNL1        0.0670
     64 H25          7.0158    0.5521   -0.9199 H       1  UNL1        0.0466
     65 H26          6.8335   -1.2021   -1.1209 H       1  UNL1        0.0466
     66 H27          8.8842   -0.6227    0.1323 H       1  UNL1        0.0338
     67 H28          7.7993   -1.6782    1.0336 H       1  UNL1        0.0338
     68 H29          6.2990   -0.5527    2.9313 H       1  UNL1        0.0338
     69 H30          6.4789    1.1824    3.1770 H       1  UNL1        0.0338
     70 H31          5.5082    1.6851    0.9888 H       1  UNL1        0.0466
     71 H32          4.4468    0.5942    1.8996 H       1  UNL1        0.0466
     72 H33          3.1026   -2.0205   -4.2970 H       1  UNL1        0.0293
     73 H34          3.5415   -0.3702   -4.8143 H       1  UNL1        0.0293
     74 H35          4.7914   -1.4855   -4.2354 H       1  UNL1        0.0293
@<TRIPOS>BOND
     1     1     2   ar
     2     2     3   ar
     3     3     4   ar
     4     4     5   ar
     5     5     6   ar
     6     6     7    1
     7     7     8    1
     8     8     9    1
     9     9    10    1
    10    10    11    1
    11    11    12    1
    12    10    13    1
    13    13    14    1
    14     4    15    1
    15    15    16    1
    16    16    17    1
    17    17    18    1
    18    18    19    1
    19    16    20    2
    20    16    21    2
    21     1    22    1
    22    22    23   am
    23    23    24    1
    24    24    25   ar
    25    25    26   ar
    26    26    27   ar
    27    27    28   ar
    28    28    29   ar
    29    28    30    1
    30    30    31    1
    31    31    32    1
    32    32    33    1
    33    33    34    1
    34    34    35    1
    35    33    36    1
    36    33    37    1
    37    26    38    1
    38    22    39    2
    39     6     1   ar
    40    12     7    1
    41    29    24   ar
    42    35    30    1
    43    14    10    1
    44     2    40    1
    45     3    41    1
    46     5    42    1
    47     7    43    1
    48     8    44    1
    49     8    45    1
    50     9    46    1
    51     9    47    1
    52    11    48    1
    53    11    49    1
    54    12    50    1
    55    12    51    1
    56    13    52    1
    57    13    53    1
    58    14    54    1
    59    14    55    1
    60    15    56    1
    61    17    57    1
    62    17    58    1
    63    18    59    1
    64    18    60    1
    65    19    61    1
    66    23    62    1
    67    25    63    1
    68    31    64    1
    69    31    65    1
    70    32    66    1
    71    32    67    1
    72    34    68    1
    73    34    69    1
    74    35    70    1
    75    35    71    1
    76    38    72    1
    77    38    73    1
    78    38    74    1
