agan5
 OpenBabel01042510183D

 44 49  0  0  0  0  0  0  0  0999 V2000
   -2.6660   -0.3910  -12.8810 C   0  0  0  0  0  0  0  0  0  0  0  0
   -1.8250    0.5730  -12.3010 C   0  0  0  0  0  0  0  0  0  0  0  0
   -0.8110    1.1430  -13.0570 C   0  0  0  0  0  3  0  0  0  0  0  0
   -0.5650    0.7770  -14.3800 C   0  0  0  0  0  0  0  0  0  0  0  0
   -1.4130   -0.1420  -14.9810 C   0  0  0  0  0  3  0  0  0  0  0  0
   -2.4460   -0.7590  -14.2530 C   0  0  0  0  0  0  0  0  0  0  0  0
   -1.9410    0.9890  -11.0390 N   0  0  0  0  0  0  0  0  0  0  0  0
   -2.9070    0.4310  -10.3080 C   0  0  0  0  0  3  0  0  0  0  0  0
   -3.7720   -0.4930  -10.7240 N   0  0  0  0  0  0  0  0  0  0  0  0
   -3.6580   -0.9080  -12.0010 C   0  0  0  0  0  0  0  0  0  0  0  0
   -4.5710   -1.8660  -12.5030 N   0  0  0  0  0  0  0  0  0  0  0  0
   -4.2130   -2.2520  -13.3800 H   0  0  0  0  0  0  0  0  0  0  0  0
   -3.2760   -1.7330  -14.8780 N   0  0  0  0  0  0  0  0  0  0  0  0
   -2.5480   -2.9330  -15.3710 C   0  0  0  0  0  2  0  0  0  0  0  0
   -2.6050   -3.0780  -16.8950 C   0  0  0  0  0  2  0  0  0  0  0  0
   -4.0380   -3.0780  -17.3960 C   0  0  0  0  0  0  0  0  0  0  0  0
   -4.9820   -2.1820  -16.6120 C   0  0  0  0  0  2  0  0  0  0  0  0
   -4.2090   -1.1040  -15.8470 C   0  0  0  0  0  2  0  0  0  0  0  0
   -4.6080   -4.3610  -17.9690 C   0  0  0  0  0  2  0  0  0  0  0  0
   -4.2570   -3.2310  -18.8890 C   0  0  0  0  0  2  0  0  0  0  0  0
   -5.6480   -2.5690  -11.9430 C   0  0  0  0  0  0  0  0  0  0  0  0
   -5.8120   -3.9200  -12.2890 C   0  0  0  0  0  3  0  0  0  0  0  0
   -6.8760   -4.6790  -11.7920 C   0  0  0  0  0  0  0  0  0  0  0  0
   -7.7830   -4.0770  -10.9160 C   0  0  0  0  0  3  0  0  0  0  0  0
   -7.6700   -2.7260  -10.5520 C   0  0  0  0  0  0  0  0  0  0  0  0
   -6.5940   -1.9940  -11.0840 C   0  0  0  0  0  3  0  0  0  0  0  0
   -7.0000   -6.1330  -12.1350 C   0  0  0  0  0  1  0  0  0  0  0  0
   -8.6290   -2.1800   -9.6710 N   0  0  0  0  0  0  0  0  0  0  0  0
   -8.1220   -1.2660   -8.6360 C   0  0  0  0  0  2  0  0  0  0  0  0
   -9.2060   -1.0540   -7.5930 C   0  0  0  0  0  2  0  0  0  0  0  0
  -10.4650   -0.5560   -8.2690 C   0  0  0  0  0  0  0  0  0  0  0  0
  -10.9380   -1.4470   -9.3970 C   0  0  0  0  0  2  0  0  0  0  0  0
   -9.8090   -1.6660  -10.3910 C   0  0  0  0  0  2  0  0  0  0  0  0
  -11.4550   -0.4400   -7.3450 F   0  0  0  0  0  0  0  0  0  0  0  0
  -10.2520    0.7000   -8.7480 F   0  0  0  0  0  0  0  0  0  0  0  0
    0.4500    1.4990  -15.0870 N   0  0  0  0  0  0  0  0  0  0  0  0
    0.7240    2.3970  -14.6830 H   0  0  0  0  0  0  0  0  0  0  0  0
    1.7900    0.7450  -15.7680 S   0  0  0  0  0  0  0  0  0  0  0  0
    1.8250    0.9880  -17.1920 O   0  0  0  0  0  0  0  0  0  0  0  0
    1.7700   -0.6050  -15.2440 O   0  0  0  0  0  0  0  0  0  0  0  0
    3.1480    1.6030  -14.9970 C   0  0  0  0  0  2  0  0  0  0  0  0
    2.8450    1.9800  -13.5660 C   0  0  0  0  0  2  0  0  0  0  0  0
    2.6860    0.7890  -12.7990 O   0  0  0  0  0  0  0  0  0  0  0  0
    1.8220    0.4060  -13.0340 H   0  0  0  0  0  0  0  0  0  0  0  0
  1  2  2  0  0  0  0
  1 10  1  0  0  0  0
  2  7  1  0  0  0  0
  3  2  1  0  0  0  0
  4  3  2  0  0  0  0
  5  4  1  0  0  0  0
  5  6  2  0  0  0  0
  6  1  1  0  0  0  0
  7  8  2  0  0  0  0
  9  8  1  0  0  0  0
 10  9  2  0  0  0  0
 11 10  1  0  0  0  0
 11 21  1  0  0  0  0
 12 11  1  0  0  0  0
 13  6  1  0  0  0  0
 14 13  1  0  0  0  0
 15 14  1  0  0  0  0
 16 15  1  0  0  0  0
 16 17  1  0  0  0  0
 17 18  1  0  0  0  0
 18 13  1  0  0  0  0
 19 16  1  0  0  0  0
 20 19  1  0  0  0  0
 20 16  1  0  0  0  0
 21 26  1  0  0  0  0
 22 21  2  0  0  0  0
 22 23  1  0  0  0  0
 23 24  2  0  0  0  0
 24 25  1  0  0  0  0
 25 28  1  0  0  0  0
 26 25  2  0  0  0  0
 27 23  1  0  0  0  0
 28 29  1  0  0  0  0
 29 30  1  0  0  0  0
 31 30  1  0  0  0  0
 31 34  1  0  0  0  0
 32 31  1  0  0  0  0
 33 28  1  0  0  0  0
 33 32  1  0  0  0  0
 35 31  1  0  0  0  0
 36 37  1  0  0  0  0
 36  4  1  0  0  0  0
 38 40  2  0  0  0  0
 38 36  1  0  0  0  0
 38 41  1  0  0  0  0
 39 38  2  0  0  0  0
 41 42  1  0  0  0  0
 42 43  1  0  0  0  0
 44 43  1  0  0  0  0
M  END
$$$$
