agan7
 OpenBabel01042510183D

 42 46  0  0  0  0  0  0  0  0999 V2000
   -1.0530   -1.1570  -13.6020 C   0  0  0  0  0  0  0  0  0  0  0  0
    0.1170   -0.7330  -12.9490 C   0  0  0  0  0  3  0  0  0  0  0  0
    1.2890   -0.5140  -13.6690 C   0  0  0  0  0  3  0  0  0  0  0  0
    1.3070   -0.7320  -15.0420 C   0  0  0  0  0  0  0  0  0  0  0  0
    0.1410   -1.1470  -15.6960 C   0  0  0  0  0  3  0  0  0  0  0  0
   -1.0680   -1.3650  -14.9960 C   0  0  0  0  0  0  0  0  0  0  0  0
   -2.2680   -1.8190  -15.8210 C   0  0  0  0  0  3  0  0  0  0  0  0
   -2.3790   -1.0580  -17.1550 C   0  0  0  0  0  2  0  0  0  0  0  0
   -3.6660   -1.4270  -17.8970 C   0  0  0  0  0  2  0  0  0  0  0  0
   -3.7830   -2.9270  -18.0570 C   0  0  0  0  0  0  0  0  0  0  0  0
   -3.6950   -3.6870  -16.7530 C   0  0  0  0  0  2  0  0  0  0  0  0
   -2.3940   -3.3410  -16.0270 C   0  0  0  0  0  2  0  0  0  0  0  0
   -4.6960   -3.4610  -19.1360 C   0  0  0  0  0  2  0  0  0  0  0  0
   -3.2050   -3.5660  -19.3010 C   0  0  0  0  0  2  0  0  0  0  0  0
   -2.2310   -1.3740  -12.7340 C   0  0  0  0  0  0  0  0  0  0  0  0
   -2.6620   -0.2280  -12.1110 N   0  0  0  0  0  0  0  0  0  0  0  0
   -2.6970   -2.4990  -12.6300 O   0  0  0  0  0  0  0  0  0  0  0  0
   -2.1830    0.6440  -12.2900 H   0  0  0  0  0  0  0  0  0  0  0  0
   -3.7560   -0.0740  -11.2550 C   0  0  0  0  0  0  0  0  0  0  0  0
   -3.6450    0.1180   -9.9010 C   0  0  0  0  0  3  0  0  0  0  0  0
   -4.8300    0.2370   -9.2150 C   0  0  0  0  0  0  0  0  0  0  0  0
   -6.0280    0.1700   -9.8290 N   0  0  0  0  0  0  0  0  0  0  0  0
   -6.0600   -0.0140  -11.1570 C   0  0  0  0  0  0  0  0  0  0  0  0
   -4.9400   -0.1400  -11.8860 N   0  0  0  0  0  0  0  0  0  0  0  0
   -7.3050   -0.1130  -11.8020 N   0  0  0  0  0  0  0  0  0  0  0  0
   -8.4050    0.4700  -11.0260 C   0  0  0  0  0  2  0  0  0  0  0  0
   -9.7350    0.1270  -11.6730 C   0  0  0  0  0  2  0  0  0  0  0  0
   -9.7180    0.5240  -13.1300 C   0  0  0  0  0  0  0  0  0  0  0  0
   -8.5700   -0.0920  -13.8940 C   0  0  0  0  0  2  0  0  0  0  0  0
   -7.2530    0.2560  -13.2190 C   0  0  0  0  0  2  0  0  0  0  0  0
  -10.8900    0.1550  -13.7100 F   0  0  0  0  0  0  0  0  0  0  0  0
   -9.6580    1.8770  -13.2330 F   0  0  0  0  0  0  0  0  0  0  0  0
   -4.8270    0.4430   -7.7310 C   0  0  0  0  0  1  0  0  0  0  0  0
    2.5010   -0.5280  -15.8000 N   0  0  0  0  0  0  0  0  0  0  0  0
    3.3340   -0.9790  -15.4050 H   0  0  0  0  0  0  0  0  0  0  0  0
    2.8970    1.0590  -16.2570 S   0  0  0  0  0  0  0  0  0  0  0  0
    3.1840    1.0270  -17.6770 O   0  0  0  0  0  0  0  0  0  0  0  0
    1.9230    1.9880  -15.7250 O   0  0  0  0  0  0  0  0  0  0  0  0
    4.4420    1.3170  -15.3970 C   0  0  0  0  0  2  0  0  0  0  0  0
    4.2460    1.4150  -13.8970 C   0  0  0  0  0  2  0  0  0  0  0  0
    3.5840    2.6310  -13.5490 O   0  0  0  0  0  0  0  0  0  0  0  0
    2.6660    2.5470  -13.8730 H   0  0  0  0  0  0  0  0  0  0  0  0
  1  2  1  0  0  0  0
  1 15  1  0  0  0  0
  3  2  2  0  0  0  0
  4  3  1  0  0  0  0
  5  4  2  0  0  0  0
  5  6  1  0  0  0  0
  6  1  2  0  0  0  0
  7  6  1  0  0  0  0
  8  7  1  0  0  0  0
  9  8  1  0  0  0  0
 10  9  1  0  0  0  0
 10 11  1  0  0  0  0
 11 12  1  0  0  0  0
 12  7  1  0  0  0  0
 13 10  1  0  0  0  0
 14 13  1  0  0  0  0
 14 10  1  0  0  0  0
 15 17  2  0  0  0  0
 15 16  1  0  0  0  0
 16 19  1  0  0  0  0
 18 16  1  0  0  0  0
 19 20  1  0  0  0  0
 20 21  2  0  0  0  0
 21 33  1  0  0  0  0
 22 21  1  0  0  0  0
 23 22  2  0  0  0  0
 24 19  2  0  0  0  0
 24 23  1  0  0  0  0
 25 23  1  0  0  0  0
 25 26  1  0  0  0  0
 27 26  1  0  0  0  0
 28 27  1  0  0  0  0
 29 30  1  0  0  0  0
 29 28  1  0  0  0  0
 30 25  1  0  0  0  0
 31 28  1  0  0  0  0
 32 28  1  0  0  0  0
 34 35  1  0  0  0  0
 34  4  1  0  0  0  0
 36 34  1  0  0  0  0
 36 38  2  0  0  0  0
 36 39  1  0  0  0  0
 37 36  2  0  0  0  0
 39 40  1  0  0  0  0
 40 41  1  0  0  0  0
 42 41  1  0  0  0  0
M  END
$$$$
