agan4
 OpenBabel01042510183D

 41 44  0  0  0  0  0  0  0  0999 V2000
   -1.3420   -0.6400  -14.3480 C   0  0  0  0  0  0  0  0  0  0  0  0
   -2.0230   -0.9530  -13.1560 C   0  0  0  0  0  0  0  0  0  0  0  0
   -1.4550   -0.7880  -11.9160 N   0  0  0  0  0  0  0  0  0  0  0  0
   -0.1920   -0.3090  -11.9230 C   0  0  0  0  0  3  0  0  0  0  0  0
    0.5170    0.0180  -13.0810 C   0  0  0  0  0  0  0  0  0  0  0  0
   -0.0630   -0.1640  -14.2810 N   0  0  0  0  0  0  0  0  0  0  0  0
    1.8290    0.4930  -12.9630 N   0  0  0  0  0  0  0  0  0  0  0  0
    1.8300    1.2630  -12.2950 H   0  0  0  0  0  0  0  0  0  0  0  0
   -1.9120   -0.7790  -15.6270 N   0  0  0  0  0  0  0  0  0  0  0  0
   -2.1430    0.5380  -16.2570 C   0  0  0  0  0  2  0  0  0  0  0  0
   -2.9740    0.3610  -17.5350 C   0  0  0  0  0  2  0  0  0  0  0  0
   -2.3170   -0.6340  -18.4700 C   0  0  0  0  0  0  0  0  0  0  0  0
   -1.9820   -1.9490  -17.7900 C   0  0  0  0  0  2  0  0  0  0  0  0
   -1.1740   -1.7050  -16.5080 C   0  0  0  0  0  2  0  0  0  0  0  0
   -1.4060   -0.1230  -19.5650 C   0  0  0  0  0  2  0  0  0  0  0  0
   -2.7640   -0.6670  -19.9130 C   0  0  0  0  0  2  0  0  0  0  0  0
   -3.4190   -1.5380  -13.0980 C   0  0  0  0  0  0  0  0  0  0  0  0
   -3.4510   -2.7220  -12.3850 N   0  0  0  0  0  0  0  0  0  0  0  0
   -4.3930   -1.0130  -13.6190 O   0  0  0  0  0  0  0  0  0  0  0  0
   -2.5630   -3.0330  -12.0050 H   0  0  0  0  0  0  0  0  0  0  0  0
   -4.5310   -3.5510  -12.1000 C   0  0  0  0  0  0  0  0  0  0  0  0
   -4.8850   -4.6590  -12.8630 C   0  0  0  0  0  3  0  0  0  0  0  0
   -5.9890   -5.4310  -12.4900 C   0  0  0  0  0  3  0  0  0  0  0  0
   -6.7190   -5.0820  -11.3640 C   0  0  0  0  0  3  0  0  0  0  0  0
   -6.2960   -3.9590  -10.6790 C   0  0  0  0  0  0  0  0  0  0  0  0
   -5.2150   -3.1880  -10.9960 N   0  0  0  0  0  0  0  0  0  0  0  0
   -7.1170   -3.4530   -9.1700 S   0  0  0  0  0  0  0  0  0  0  0  0
   -6.4850   -4.1340   -8.0620 O   0  0  0  0  0  0  0  0  0  0  0  0
   -8.5370   -3.5690   -9.4230 O   0  0  0  0  0  0  0  0  0  0  0  0
   -6.7610   -1.7890   -9.0990 N   0  0  0  0  0  0  0  0  0  0  0  0
   -5.7650   -1.7110   -9.3400 H   0  0  0  0  0  0  0  0  0  0  0  0
   -7.1050   -0.9480   -7.9140 C   0  0  0  0  0  0  0  0  0  0  0  0
   -6.9630    0.5170   -8.3750 C   0  0  0  0  0  1  0  0  0  0  0  0
   -6.1660   -1.1720   -6.7280 C   0  0  0  0  0  1  0  0  0  0  0  0
   -8.5670   -1.1820   -7.5170 C   0  0  0  0  0  1  0  0  0  0  0  0
    2.6400    0.8340  -14.1620 C   0  0  0  0  0  0  0  0  0  0  0  0
    2.8320   -0.3860  -15.0780 C   0  0  0  0  0  1  0  0  0  0  0  0
    2.0630    2.0310  -14.9290 C   0  0  0  0  0  1  0  0  0  0  0  0
    4.0430    1.2500  -13.6130 C   0  0  0  0  0  2  0  0  0  0  0  0
    4.2500    0.7360  -12.2960 O   0  0  0  0  0  0  0  0  0  0  0  0
    3.3570    0.5460  -11.9450 H   0  0  0  0  0  0  0  0  0  0  0  0
  1  6  2  0  0  0  0
  1  2  1  0  0  0  0
  2 17  1  0  0  0  0
  2  3  2  0  0  0  0
  4  3  1  0  0  0  0
  5  7  1  0  0  0  0
  5  4  2  0  0  0  0
  6  5  1  0  0  0  0
  7  8  1  0  0  0  0
  9  1  1  0  0  0  0
 10  9  1  0  0  0  0
 11 10  1  0  0  0  0
 12 13  1  0  0  0  0
 12 11  1  0  0  0  0
 13 14  1  0  0  0  0
 14  9  1  0  0  0  0
 15 12  1  0  0  0  0
 16 15  1  0  0  0  0
 16 12  1  0  0  0  0
 17 18  1  0  0  0  0
 18 21  1  0  0  0  0
 18 20  1  0  0  0  0
 19 17  2  0  0  0  0
 21 26  1  0  0  0  0
 22 23  1  0  0  0  0
 22 21  2  0  0  0  0
 23 24  2  0  0  0  0
 24 25  1  0  0  0  0
 25 27  1  0  0  0  0
 26 25  2  0  0  0  0
 27 30  1  0  0  0  0
 27 28  2  0  0  0  0
 29 27  2  0  0  0  0
 30 32  1  0  0  0  0
 31 30  1  0  0  0  0
 32 35  1  0  0  0  0
 32 34  1  0  0  0  0
 33 32  1  0  0  0  0
 36 39  1  0  0  0  0
 36  7  1  0  0  0  0
 37 36  1  0  0  0  0
 38 36  1  0  0  0  0
 39 40  1  0  0  0  0
 40 41  1  0  0  0  0
M  END
$$$$
