agan2
 OpenBabel01042510183D

 41 45  0  0  0  0  0  0  0  0999 V2000
   -0.9790   -0.7900  -14.7520 C   0  0  0  0  0  0  0  0  0  0  0  0
   -1.1030   -0.0620  -13.5430 C   0  0  0  0  0  0  0  0  0  0  0  0
    0.0490    0.4840  -12.9460 C   0  0  0  0  0  3  0  0  0  0  0  0
    1.3110    0.3160  -13.5190 C   0  0  0  0  0  3  0  0  0  0  0  0
    1.4430   -0.4120  -14.6950 C   0  0  0  0  0  0  0  0  0  0  0  0
    0.3100   -0.9480  -15.3080 C   0  0  0  0  0  3  0  0  0  0  0  0
   -2.1050   -1.3950  -15.3760 N   0  0  0  0  0  0  0  0  0  0  0  0
   -1.8190   -2.8250  -15.6800 C   0  0  0  0  0  2  0  0  0  0  0  0
   -2.9760   -3.4380  -16.4750 C   0  0  0  0  0  2  0  0  0  0  0  0
   -3.1680   -2.7190  -17.8000 C   0  0  0  0  0  0  0  0  0  0  0  0
   -2.5750   -1.3230  -17.8490 C   0  0  0  0  0  2  0  0  0  0  0  0
   -2.7030   -0.6160  -16.4950 C   0  0  0  0  0  2  0  0  0  0  0  0
   -4.4460   -2.9940  -18.5680 C   0  0  0  0  0  2  0  0  0  0  0  0
   -3.1440   -3.5340  -19.0770 C   0  0  0  0  0  2  0  0  0  0  0  0
   -2.4070    0.2060  -12.8330 C   0  0  0  0  0  0  0  0  0  0  0  0
   -2.4550   -0.1700  -11.5090 N   0  0  0  0  0  0  0  0  0  0  0  0
   -3.3260    0.7170  -13.4690 O   0  0  0  0  0  0  0  0  0  0  0  0
   -1.5810   -0.5540  -11.1510 H   0  0  0  0  0  0  0  0  0  0  0  0
   -3.5210   -0.0640  -10.5950 C   0  0  0  0  0  0  0  0  0  0  0  0
   -3.3190    0.7550   -9.4810 C   0  0  0  0  0  3  0  0  0  0  0  0
   -4.3240    0.9110   -8.5300 C   0  0  0  0  0  3  0  0  0  0  0  0
   -5.5400    0.2490   -8.6930 C   0  0  0  0  0  3  0  0  0  0  0  0
   -5.7820   -0.5770   -9.8020 C   0  0  0  0  0  0  0  0  0  0  0  0
   -4.7480   -0.7220  -10.7430 C   0  0  0  0  0  3  0  0  0  0  0  0
   -7.0320   -1.2240   -9.9060 N   0  0  0  0  0  0  0  0  0  0  0  0
   -6.9660   -2.4310  -10.7520 C   0  0  0  0  0  2  0  0  0  0  0  0
   -8.3780   -2.8480  -11.1330 C   0  0  0  0  0  2  0  0  0  0  0  0
   -9.2170   -3.0180   -9.8860 C   0  0  0  0  0  0  0  0  0  0  0  0
   -9.2110   -1.8020   -8.9850 C   0  0  0  0  0  2  0  0  0  0  0  0
   -7.7780   -1.4240   -8.6520 C   0  0  0  0  0  2  0  0  0  0  0  0
  -10.4970   -3.3030  -10.2460 F   0  0  0  0  0  0  0  0  0  0  0  0
   -8.7750   -4.0980   -9.1900 F   0  0  0  0  0  0  0  0  0  0  0  0
    2.7450   -0.5780  -15.2490 N   0  0  0  0  0  0  0  0  0  0  0  0
    3.1270   -1.5220  -15.2970 H   0  0  0  0  0  0  0  0  0  0  0  0
    3.2990    0.4330  -16.4720 S   0  0  0  0  0  0  0  0  0  0  0  0
    2.3400    1.5150  -16.5440 O   0  0  0  0  0  0  0  0  0  0  0  0
    3.6090   -0.3560  -17.6440 O   0  0  0  0  0  0  0  0  0  0  0  0
    4.8220    1.0910  -15.8150 C   0  0  0  0  0  2  0  0  0  0  0  0
    4.7070    1.4280  -14.3460 C   0  0  0  0  0  2  0  0  0  0  0  0
    6.0140    1.5350  -13.7920 O   0  0  0  0  0  0  0  0  0  0  0  0
    5.9160    1.6490  -12.8290 H   0  0  0  0  0  0  0  0  0  0  0  0
  1  2  1  0  0  0  0
  2  3  2  0  0  0  0
  2 15  1  0  0  0  0
  4  3  1  0  0  0  0
  5  4  2  0  0  0  0
  6  1  2  0  0  0  0
  6  5  1  0  0  0  0
  7  1  1  0  0  0  0
  8  7  1  0  0  0  0
  9  8  1  0  0  0  0
 10  9  1  0  0  0  0
 11 10  1  0  0  0  0
 11 12  1  0  0  0  0
 12  7  1  0  0  0  0
 13 10  1  0  0  0  0
 14 13  1  0  0  0  0
 14 10  1  0  0  0  0
 15 16  1  0  0  0  0
 16 18  1  0  0  0  0
 16 19  1  0  0  0  0
 17 15  2  0  0  0  0
 19 20  1  0  0  0  0
 20 21  2  0  0  0  0
 22 21  1  0  0  0  0
 23 22  2  0  0  0  0
 24 19  2  0  0  0  0
 24 23  1  0  0  0  0
 25 23  1  0  0  0  0
 25 30  1  0  0  0  0
 26 25  1  0  0  0  0
 27 26  1  0  0  0  0
 27 28  1  0  0  0  0
 28 32  1  0  0  0  0
 28 29  1  0  0  0  0
 29 30  1  0  0  0  0
 31 28  1  0  0  0  0
 33  5  1  0  0  0  0
 34 33  1  0  0  0  0
 35 38  1  0  0  0  0
 35 33  1  0  0  0  0
 36 35  2  0  0  0  0
 37 35  2  0  0  0  0
 38 39  1  0  0  0  0
 39 40  1  0  0  0  0
 40 41  1  0  0  0  0
M  END
$$$$
