MODEL 1
REMARK VINA RESULT:    -7.147      0.000      0.000
REMARK INTER + INTRA:         -11.497
REMARK INTER:                  -9.862
REMARK INTRA:                  -1.634
REMARK UNBOUND:                -1.634
REMARK  Name = agan8
REMARK  7 active torsions:
REMARK  status: ('A' for Active; 'I' for Inactive)
REMARK    1  A    between atoms: C1_1  and  C16_22
REMARK    2  A    between atoms: C4_4  and  N2_15
REMARK    3  A    between atoms: C6_6  and  N1_7
REMARK    4  A    between atoms: N2_15  and  S1_16
REMARK    5  A    between atoms: S1_16  and  C14_17
REMARK    6  A    between atoms: C14_17  and  C15_18
REMARK    7  A    between atoms: C15_18  and  O1_19
REMARK                            x       y       z     vdW  Elec       q    Type
REMARK                         _______ _______ _______ _____ _____    ______ ____
ROOT
ATOM      1  C1  UNL A   1      -1.519  -1.077 -13.305  0.00  0.00    +0.003 A 
ATOM      2  C2  UNL A   1      -0.378  -0.613 -12.612  0.00  0.00    +0.012 A 
ATOM      3  C3  UNL A   1       0.835  -0.401 -13.263  0.00  0.00    +0.025 A 
ATOM      4  C4  UNL A   1       0.929  -0.645 -14.626  0.00  0.00    +0.050 A 
ATOM      5  C5  UNL A   1      -0.188  -1.095 -15.333  0.00  0.00    +0.048 A 
ATOM      6  C6  UNL A   1      -1.425  -1.342 -14.702  0.00  0.00    +0.039 A 
ENDROOT
BRANCH   1   7
ATOM      7  C16 UNL A   1      -2.780  -1.190 -12.543  0.00  0.00    -0.011 A 
ATOM      8  C17 UNL A   1      -3.466  -2.409 -12.449  0.00  0.00    +0.052 A 
ATOM      9  C18 UNL A   1      -4.652  -2.503 -11.716  0.00  0.00    +0.122 A 
ATOM     10  N3  UNL A   1      -5.152  -1.432 -11.065  0.00  0.00    -0.240 NA
ATOM     11  C19 UNL A   1      -4.486  -0.260 -11.157  0.00  0.00    +0.113 A 
ATOM     12  C20 UNL A   1      -3.316  -0.091 -11.872  0.00  0.00    +0.028 A 
ATOM     13  N4  UNL A   1      -5.316  -3.752 -11.643  0.00  0.00    -0.315 N 
ATOM     14  C21 UNL A   1      -5.884  -4.128 -12.949  0.00  0.00    +0.112 C 
ATOM     15  C22 UNL A   1      -6.408  -5.552 -12.869  0.00  0.00    +0.094 C 
ATOM     16  C23 UNL A   1      -7.391  -5.674 -11.725  0.00  0.00    +0.252 C 
ATOM     17  C24 UNL A   1      -6.833  -5.203 -10.402  0.00  0.00    +0.094 C 
ATOM     18  C25 UNL A   1      -6.304  -3.785 -10.549  0.00  0.00    +0.112 C 
ATOM     19  F1  UNL A   1      -7.784  -6.970 -11.611  0.00  0.00    -0.206 F 
ATOM     20  F2  UNL A   1      -8.514  -4.968 -12.022  0.00  0.00    -0.206 F 
ENDBRANCH   1   7
BRANCH   6  21
ATOM     21  N1  UNL A   1      -2.515  -1.836 -15.436  0.00  0.00    -0.329 N 
ATOM     22  C7  UNL A   1      -2.325  -3.150 -16.092  0.00  0.00    +0.105 C 
ATOM     23  C8  UNL A   1      -2.828  -3.146 -17.541  0.00  0.00    +0.026 C 
ATOM     24  C9  UNL A   1      -4.279  -2.709 -17.624  0.00  0.00    -0.026 C 
ATOM     25  C10 UNL A   1      -4.669  -1.644 -16.611  0.00  0.00    +0.026 C 
ATOM     26  C11 UNL A   1      -3.434  -0.895 -16.098  0.00  0.00    +0.105 C 
ATOM     27  C12 UNL A   1      -4.928  -2.681 -18.993  0.00  0.00    +0.007 C 
ATOM     28  C13 UNL A   1      -5.329  -3.734 -18.005  0.00  0.00    +0.007 C 
ENDBRANCH   6  21
BRANCH   4  29
ATOM     29  N2  UNL A   1       2.178  -0.437 -15.274  0.00  0.00    -0.221 N 
ATOM     30  H16 UNL A   1       2.640  -1.251 -15.678  0.00  0.00    +0.173 HD
BRANCH  29  31
ATOM     31  S1  UNL A   1       2.471   0.972 -16.146  0.00  0.00    +0.045 S 
ATOM     32  O2  UNL A   1       3.792   1.396 -15.729  0.00  0.00    -0.155 OA
ATOM     33  O3  UNL A   1       1.341   1.867 -16.036  0.00  0.00    -0.155 OA
BRANCH  31  34
ATOM     34  C14 UNL A   1       2.614   0.391 -17.828  0.00  0.00    +0.216 C 
BRANCH  34  35
ATOM     35  C15 UNL A   1       4.053   0.217 -18.260  0.00  0.00    +0.180 C 
BRANCH  35  36
ATOM     36  O1  UNL A   1       4.719  -0.618 -17.315  0.00  0.00    -0.393 OA
ATOM     37  H21 UNL A   1       5.674  -0.536 -17.486  0.00  0.00    +0.209 HD
ENDBRANCH  35  36
ENDBRANCH  34  35
ENDBRANCH  31  34
ENDBRANCH  29  31
ENDBRANCH   4  29
TORSDOF 7
ENDMDL