MODEL 1
REMARK VINA RESULT:    -8.309      0.000      0.000
REMARK INTER + INTRA:         -13.030
REMARK INTER:                 -11.643
REMARK INTRA:                  -1.387
REMARK UNBOUND:                -1.564
REMARK  Name = agan1
REMARK  8 active torsions:
REMARK  status: ('A' for Active; 'I' for Inactive)
REMARK    1  A    between atoms: C1_1  and  C2_2
REMARK    2  A    between atoms: C11_17  and  C12_19
REMARK    3  A    between atoms: C13_20  and  N6_32
REMARK    4  A    between atoms: C15_22  and  N5_25
REMARK    5  A    between atoms: N5_25  and  S1_26
REMARK    6  A    between atoms: S1_26  and  C18_29
REMARK    7  A    between atoms: C18_29  and  C19_30
REMARK    8  A    between atoms: C19_30  and  O4_31
REMARK                            x       y       z     vdW  Elec       q    Type
REMARK                         _______ _______ _______ _____ _____    ______ ____
ROOT
ATOM      1  C12 UNL A   1      -1.239   0.020 -12.871  0.00  0.00    +0.058 A 
ATOM      2  C13 UNL A   1      -1.582   0.060 -14.248  0.00  0.00    +0.044 A 
ATOM      3  C14 UNL A   1      -0.559  -0.128 -15.200  0.00  0.00    +0.048 A 
ATOM      4  C15 UNL A   1       0.762  -0.357 -14.809  0.00  0.00    +0.050 A 
ATOM      5  C16 UNL A   1       1.093  -0.414 -13.463  0.00  0.00    +0.025 A 
ATOM      6  C17 UNL A   1       0.100  -0.219 -12.502  0.00  0.00    +0.017 A 
ENDROOT
BRANCH   1  23
ATOM      7  C1  UNL A   1      -5.788   0.783  -7.706  0.00  0.00    +0.066 C 
ATOM      8  C2  UNL A   1      -5.521  -0.119  -8.872  0.00  0.00    +0.045 A 
ATOM      9  C3  UNL A   1      -4.439   0.107  -9.690  0.00  0.00    +0.067 A 
ATOM     10  C4  UNL A   1      -4.275  -0.775 -10.728  0.00  0.00    +0.131 A 
ATOM     11  N1  UNL A   1      -5.117  -1.804 -10.941  0.00  0.00    -0.199 NA
ATOM     12  C5  UNL A   1      -6.153  -1.967 -10.106  0.00  0.00    +0.220 A 
ATOM     13  N2  UNL A   1      -6.374  -1.142  -9.071  0.00  0.00    -0.220 NA
ATOM     14  N3  UNL A   1      -7.023  -3.055 -10.300  0.00  0.00    -0.299 N 
ATOM     15  C6  UNL A   1      -6.984  -3.594 -11.661  0.00  0.00    +0.114 C 
ATOM     16  C7  UNL A   1      -7.773  -4.889 -11.733  0.00  0.00    +0.094 C 
ATOM     17  C8  UNL A   1      -9.164  -4.676 -11.185  0.00  0.00    +0.252 C 
ATOM     18  C9  UNL A   1      -9.163  -4.121  -9.780  0.00  0.00    +0.094 C 
ATOM     19  C10 UNL A   1      -8.356  -2.834  -9.730  0.00  0.00    +0.114 C 
ATOM     20  F1  UNL A   1      -9.838  -5.856 -11.201  0.00  0.00    -0.206 F 
ATOM     21  F2  UNL A   1      -9.851  -3.839 -12.005  0.00  0.00    -0.206 F 
ATOM     22  N4  UNL A   1      -3.236  -0.694 -11.654  0.00  0.00    -0.266 N 
ATOM     23  C11 UNL A   1      -2.213   0.216 -11.737  0.00  0.00    +0.251 C 
ATOM     24  O1  UNL A   1      -2.046   1.160 -10.969  0.00  0.00    -0.270 OA
ATOM     25  H13 UNL A   1      -3.253  -1.424 -12.364  0.00  0.00    +0.157 HD
ENDBRANCH   1  23
BRANCH   2  26
ATOM     26  N6  UNL A   1      -2.928   0.263 -14.666  0.00  0.00    -0.329 N 
ATOM     27  C20 UNL A   1      -3.139   1.604 -15.271  0.00  0.00    +0.105 C 
ATOM     28  C21 UNL A   1      -4.638   1.825 -15.506  0.00  0.00    +0.026 C 
ATOM     29  C22 UNL A   1      -5.221   0.704 -16.346  0.00  0.00    -0.026 C 
ATOM     30  C23 UNL A   1      -5.323   0.891 -17.844  0.00  0.00    +0.007 C 
ATOM     31  C24 UNL A   1      -6.567   0.926 -16.999  0.00  0.00    +0.007 C 
ATOM     32  C25 UNL A   1      -4.906  -0.677 -15.801  0.00  0.00    +0.026 C 
ATOM     33  C26 UNL A   1      -3.401  -0.836 -15.553  0.00  0.00    +0.105 C 
ENDBRANCH   2  26
BRANCH   4  34
ATOM     34  N5  UNL A   1       1.771  -0.598 -15.786  0.00  0.00    -0.221 N 
ATOM     35  H17 UNL A   1       2.628  -1.025 -15.426  0.00  0.00    +0.173 HD
BRANCH  34  36
ATOM     36  S1  UNL A   1       2.194   0.704 -16.789  0.00  0.00    +0.045 S 
ATOM     37  O2  UNL A   1       2.267   1.848 -15.903  0.00  0.00    -0.155 OA
ATOM     38  O3  UNL A   1       1.347   0.718 -17.959  0.00  0.00    -0.155 OA
BRANCH  36  39
ATOM     39  C18 UNL A   1       3.858   0.269 -17.250  0.00  0.00    +0.216 C 
BRANCH  39  40
ATOM     40  C19 UNL A   1       3.996   0.267 -18.756  0.00  0.00    +0.180 C 
BRANCH  40  41
ATOM     41  O4  UNL A   1       3.735   1.572 -19.268  0.00  0.00    -0.393 OA
ATOM     42  H22 UNL A   1       2.770   1.671 -19.356  0.00  0.00    +0.209 HD
ENDBRANCH  40  41
ENDBRANCH  39  40
ENDBRANCH  36  39
ENDBRANCH  34  36
ENDBRANCH   4  34
TORSDOF 7
ENDMDL