MODEL 1
REMARK VINA RESULT:    -8.032      0.000      0.000
REMARK INTER + INTRA:         -13.617
REMARK INTER:                 -11.554
REMARK INTRA:                  -2.063
REMARK UNBOUND:                -2.063
REMARK  Name = agan5
REMARK  9 active torsions:
REMARK  status: ('A' for Active; 'I' for Inactive)
REMARK    1  A    between atoms: C4_4  and  N2_15
REMARK    2  A    between atoms: C6_6  and  N1_7
REMARK    3  A    between atoms: N2_15  and  S1_16
REMARK    4  A    between atoms: S1_16  and  C14_17
REMARK    5  A    between atoms: C14_17  and  C15_18
REMARK    6  A    between atoms: C15_18  and  O1_19
REMARK    7  A    between atoms: N5_26  and  C18_27
REMARK    8  A    between atoms: C20_29  and  C29_41
REMARK    9  A    between atoms: C22_31  and  N6_33
REMARK                            x       y       z     vdW  Elec       q    Type
REMARK                         _______ _______ _______ _____ _____    ______ ____
ROOT
ATOM      1  C1  UNL A   1      -2.666  -0.391 -12.881  0.00  0.00    +0.061 A 
ATOM      2  C2  UNL A   1      -1.825   0.573 -12.301  0.00  0.00    +0.080 A 
ATOM      3  C3  UNL A   1      -0.811   1.143 -13.057  0.00  0.00    +0.053 A 
ATOM      4  C4  UNL A   1      -0.565   0.777 -14.380  0.00  0.00    +0.051 A 
ATOM      5  C5  UNL A   1      -1.413  -0.142 -14.981  0.00  0.00    +0.048 A 
ATOM      6  C6  UNL A   1      -2.446  -0.759 -14.253  0.00  0.00    +0.044 A 
ATOM      7  N3  UNL A   1      -1.941   0.989 -11.039  0.00  0.00    -0.235 NA
ATOM      8  C16 UNL A   1      -2.907   0.431 -10.308  0.00  0.00    +0.224 A 
ATOM      9  N4  UNL A   1      -3.772  -0.493 -10.724  0.00  0.00    -0.220 NA
ATOM     10  C17 UNL A   1      -3.658  -0.908 -12.001  0.00  0.00    +0.136 A 
ATOM     11  N5  UNL A   1      -4.571  -1.866 -12.503  0.00  0.00    -0.299 N 
ATOM     12  H22 UNL A   1      -4.213  -2.252 -13.380  0.00  0.00    +0.154 HD
ENDROOT
BRANCH   6  13
ATOM     13  N1  UNL A   1      -3.276  -1.733 -14.878  0.00  0.00    -0.329 N 
ATOM     14  C7  UNL A   1      -2.548  -2.933 -15.371  0.00  0.00    +0.105 C 
ATOM     15  C8  UNL A   1      -2.605  -3.078 -16.895  0.00  0.00    +0.026 C 
ATOM     16  C9  UNL A   1      -4.038  -3.078 -17.396  0.00  0.00    -0.026 C 
ATOM     17  C10 UNL A   1      -4.982  -2.182 -16.612  0.00  0.00    +0.026 C 
ATOM     18  C11 UNL A   1      -4.209  -1.104 -15.847  0.00  0.00    +0.105 C 
ATOM     19  C12 UNL A   1      -4.608  -4.361 -17.969  0.00  0.00    +0.007 C 
ATOM     20  C13 UNL A   1      -4.257  -3.231 -18.889  0.00  0.00    +0.007 C 
ENDBRANCH   6  13
BRANCH  11  21
ATOM     21  C18 UNL A   1      -5.648  -2.569 -11.943  0.00  0.00    +0.034 A 
ATOM     22  C19 UNL A   1      -5.812  -3.920 -12.289  0.00  0.00    +0.026 A 
ATOM     23  C20 UNL A   1      -6.876  -4.679 -11.792  0.00  0.00    -0.047 A 
ATOM     24  C21 UNL A   1      -7.783  -4.077 -10.916  0.00  0.00    +0.026 A 
ATOM     25  C22 UNL A   1      -7.670  -2.726 -10.552  0.00  0.00    +0.032 A 
ATOM     26  C23 UNL A   1      -6.594  -1.994 -11.084  0.00  0.00    +0.046 A 
ATOM     27  C29 UNL A   1      -7.000  -6.133 -12.135  0.00  0.00    +0.044 C 
BRANCH  25  28
ATOM     28  N6  UNL A   1      -8.629  -2.180  -9.671  0.00  0.00    -0.330 N 
ATOM     29  C24 UNL A   1      -8.122  -1.266  -8.636  0.00  0.00    +0.111 C 
ATOM     30  C25 UNL A   1      -9.206  -1.054  -7.593  0.00  0.00    +0.094 C 
ATOM     31  C26 UNL A   1     -10.465  -0.556  -8.269  0.00  0.00    +0.252 C 
ATOM     32  C27 UNL A   1     -10.938  -1.447  -9.397  0.00  0.00    +0.094 C 
ATOM     33  C28 UNL A   1      -9.809  -1.666 -10.391  0.00  0.00    +0.111 C 
ATOM     34  F1  UNL A   1     -11.455  -0.440  -7.345  0.00  0.00    -0.206 F 
ATOM     35  F2  UNL A   1     -10.252   0.700  -8.748  0.00  0.00    -0.206 F 
ENDBRANCH  25  28
ENDBRANCH  11  21
BRANCH   4  36
ATOM     36  N2  UNL A   1       0.450   1.499 -15.087  0.00  0.00    -0.220 N 
ATOM     37  H15 UNL A   1       0.724   2.397 -14.683  0.00  0.00    +0.173 HD
BRANCH  36  38
ATOM     38  S1  UNL A   1       1.790   0.745 -15.768  0.00  0.00    +0.045 S 
ATOM     39  O2  UNL A   1       1.825   0.988 -17.192  0.00  0.00    -0.155 OA
ATOM     40  O3  UNL A   1       1.770  -0.605 -15.244  0.00  0.00    -0.155 OA
BRANCH  38  41
ATOM     41  C14 UNL A   1       3.148   1.603 -14.997  0.00  0.00    +0.216 C 
BRANCH  41  42
ATOM     42  C15 UNL A   1       2.845   1.980 -13.566  0.00  0.00    +0.180 C 
BRANCH  42  43
ATOM     43  O1  UNL A   1       2.686   0.789 -12.799  0.00  0.00    -0.393 OA
ATOM     44  H20 UNL A   1       1.822   0.406 -13.034  0.00  0.00    +0.209 HD
ENDBRANCH  42  43
ENDBRANCH  41  42
ENDBRANCH  38  41
ENDBRANCH  36  38
ENDBRANCH   4  36
TORSDOF 8
ENDMDL