MODEL 1
REMARK VINA RESULT:    -8.295      0.000      0.000
REMARK INTER + INTRA:         -11.283
REMARK INTER:                 -11.205
REMARK INTRA:                  -0.078
REMARK UNBOUND:                -0.078
REMARK  Name = agan3
REMARK  10 active torsions:
REMARK  status: ('A' for Active; 'I' for Inactive)
REMARK    1  A    between atoms: C4_4  and  N3_33
REMARK    2  A    between atoms: C9_10  and  C10_11
REMARK    3  A    between atoms: C12_13  and  S1_17
REMARK    4  A    between atoms: S1_17  and  N2_18
REMARK    5  A    between atoms: N2_18  and  C16_19
REMARK    6  A    between atoms: C16_19  and  C17_20
REMARK    7  A    between atoms: C16_19  and  C18_21
REMARK    8  A    between atoms: C16_19  and  C19_22
REMARK    9  A    between atoms: N3_33  and  S2_34
REMARK   10  A    between atoms: S2_34  and  C27_35
REMARK                            x       y       z     vdW  Elec       q    Type
REMARK                         _______ _______ _______ _____ _____    ______ ____
ROOT
ATOM      1  C1  UNL A   1      -3.847  -0.263 -11.117  0.00  0.00    +0.041 A 
ATOM      2  C2  UNL A   1      -3.412   0.147  -9.865  0.00  0.00    +0.026 A 
ATOM      3  C3  UNL A   1      -4.357   0.324  -8.850  0.00  0.00    +0.026 A 
ATOM      4  C4  UNL A   1      -5.712   0.079  -9.095  0.00  0.00    +0.048 A 
ATOM      5  C5  UNL A   1      -6.147  -0.325 -10.357  0.00  0.00    +0.030 A 
ATOM      6  C6  UNL A   1      -5.202  -0.495 -11.365  0.00  0.00    -0.017 A 
ATOM      7  C7  UNL A   1      -5.449  -0.873 -12.811  0.00  0.00    +0.014 C 
ATOM      8  C8  UNL A   1      -3.989  -0.971 -13.339  0.00  0.00    +0.125 C 
ATOM      9  N1  UNL A   1      -3.086  -0.499 -12.272  0.00  0.00    -0.266 N 
ATOM     10  C9  UNL A   1      -1.717  -0.315 -12.386  0.00  0.00    +0.251 C 
ATOM     11  O3  UNL A   1      -0.958   0.121 -11.528  0.00  0.00    -0.270 OA
ATOM     12  C20 UNL A   1      -6.186  -2.222 -12.932  0.00  0.00    +0.013 C 
ATOM     13  C21 UNL A   1      -6.501  -2.578 -14.385  0.00  0.00    +0.008 C 
ATOM     14  C22 UNL A   1      -7.268  -1.460 -15.048  0.00  0.00    -0.029 C 
ATOM     15  C23 UNL A   1      -6.577  -0.118 -14.981  0.00  0.00    +0.008 C 
ATOM     16  C24 UNL A   1      -6.239   0.242 -13.532  0.00  0.00    +0.013 C 
ATOM     17  C25 UNL A   1      -8.064  -1.785 -16.292  0.00  0.00    +0.007 C 
ATOM     18  C26 UNL A   1      -8.781  -1.495 -15.002  0.00  0.00    +0.007 C 
ENDROOT
BRANCH  10  19
ATOM     19  C10 UNL A   1      -1.113  -0.675 -13.684  0.00  0.00    +0.039 A 
ATOM     20  C11 UNL A   1      -0.409   0.288 -14.409  0.00  0.00    +0.041 A 
ATOM     21  C12 UNL A   1       0.181  -0.085 -15.617  0.00  0.00    +0.106 A 
ATOM     22  C13 UNL A   1       0.055  -1.391 -16.107  0.00  0.00    +0.028 A 
ATOM     23  C14 UNL A   1      -0.676  -2.334 -15.382  0.00  0.00    +0.003 A 
ATOM     24  C15 UNL A   1      -1.264  -1.978 -14.169  0.00  0.00    +0.013 A 
BRANCH  21  25
ATOM     25  S1  UNL A   1       1.119   1.112 -16.528  0.00  0.00    +0.059 S 
ATOM     26  O1  UNL A   1       0.203   2.175 -16.878  0.00  0.00    -0.153 OA
ATOM     27  O2  UNL A   1       1.910   0.428 -17.525  0.00  0.00    -0.153 OA
BRANCH  25  28
ATOM     28  N2  UNL A   1       2.144   1.759 -15.368  0.00  0.00    -0.185 NA
ATOM     29  H10 UNL A   1       2.212   2.773 -15.471  0.00  0.00    +0.149 HD
BRANCH  28  30
ATOM     30  C16 UNL A   1       3.318   1.065 -14.794  0.00  0.00    +0.032 C 
ATOM     31  C17 UNL A   1       4.432   0.977 -15.841  0.00  0.00    +0.029 C 
ATOM     32  C18 UNL A   1       3.805   1.947 -13.628  0.00  0.00    +0.029 C 
ATOM     33  C19 UNL A   1       2.973  -0.319 -14.239  0.00  0.00    +0.029 C 
ENDBRANCH  28  30
ENDBRANCH  25  28
ENDBRANCH  21  25
ENDBRANCH  10  19
BRANCH   4  34
ATOM     34  N3  UNL A   1      -6.658   0.312  -8.055  0.00  0.00    -0.221 N 
ATOM     35  H32 UNL A   1      -6.455   1.116  -7.459  0.00  0.00    +0.173 HD
BRANCH  34  36
ATOM     36  S2  UNL A   1      -7.053  -1.007  -7.067  0.00  0.00    +0.040 S 
ATOM     37  C27 UNL A   1      -8.820  -1.086  -7.266  0.00  0.00    +0.218 C 
ATOM     38  O4  UNL A   1      -6.784  -0.561  -5.716  0.00  0.00    -0.155 OA
ATOM     39  O5  UNL A   1      -6.456  -2.217  -7.585  0.00  0.00    -0.155 OA
ENDBRANCH  34  36
ENDBRANCH   4  34
TORSDOF 6
ENDMDL