MODEL 1
REMARK VINA RESULT:    -7.521      0.000      0.000
REMARK INTER + INTRA:         -12.424
REMARK INTER:                 -10.818
REMARK INTRA:                  -1.606
REMARK UNBOUND:                -1.606
REMARK  Name = agan10
REMARK  8 active torsions:
REMARK  status: ('A' for Active; 'I' for Inactive)
REMARK    1  A    between atoms: C1_1  and  C16_22
REMARK    2  A    between atoms: C4_4  and  N2_15
REMARK    3  A    between atoms: C6_6  and  N1_7
REMARK    4  A    between atoms: N2_15  and  S1_16
REMARK    5  A    between atoms: S1_16  and  C14_17
REMARK    6  A    between atoms: C14_17  and  C15_18
REMARK    7  A    between atoms: C15_18  and  O1_19
REMARK    8  A    between atoms: C22_30  and  N4_31
REMARK                            x       y       z     vdW  Elec       q    Type
REMARK                         _______ _______ _______ _____ _____    ______ ____
ROOT
ATOM      1  C1  UNL A   1      -1.154  -0.768 -13.088  0.00  0.00    +0.028 A 
ATOM      2  C2  UNL A   1      -0.032  -0.203 -12.442  0.00  0.00    +0.014 A 
ATOM      3  C3  UNL A   1       1.201  -0.093 -13.087  0.00  0.00    +0.025 A 
ATOM      4  C4  UNL A   1       1.335  -0.562 -14.386  0.00  0.00    +0.050 A 
ATOM      5  C5  UNL A   1       0.238  -1.123 -15.040  0.00  0.00    +0.048 A 
ATOM      6  C6  UNL A   1      -1.022  -1.242 -14.415  0.00  0.00    +0.041 A 
ENDROOT
BRANCH   1   7
ATOM      7  C16 UNL A   1      -2.394  -0.871 -12.312  0.00  0.00    +0.111 A 
ATOM      8  N3  UNL A   1      -3.228  -1.883 -12.354  0.00  0.00    -0.237 NA
ATOM      9  C17 UNL A   1      -4.313  -1.672 -11.505  0.00  0.00    +0.100 A 
ATOM     10  C18 UNL A   1      -4.260  -0.464 -10.802  0.00  0.00    +0.041 A 
ATOM     11  S2  UNL A   1      -2.821   0.387 -11.225  0.00  0.00    -0.067 S 
ATOM     12  C19 UNL A   1      -5.264  -0.066  -9.906  0.00  0.00    +0.017 A 
ATOM     13  C20 UNL A   1      -6.351  -0.914  -9.721  0.00  0.00    +0.003 A 
ATOM     14  C21 UNL A   1      -6.431  -2.119 -10.412  0.00  0.00    +0.025 A 
ATOM     15  C22 UNL A   1      -5.433  -2.543 -11.322  0.00  0.00    +0.057 A 
BRANCH  15  16
ATOM     16  N4  UNL A   1      -5.647  -3.806 -11.961  0.00  0.00    -0.328 N 
ATOM     17  C23 UNL A   1      -5.628  -3.765 -13.433  0.00  0.00    +0.111 C 
ATOM     18  C24 UNL A   1      -5.587  -5.192 -13.956  0.00  0.00    +0.094 C 
ATOM     19  C25 UNL A   1      -6.775  -5.953 -13.407  0.00  0.00    +0.252 C 
ATOM     20  C26 UNL A   1      -6.873  -5.911 -11.897  0.00  0.00    +0.094 C 
ATOM     21  C27 UNL A   1      -6.847  -4.469 -11.418  0.00  0.00    +0.111 C 
ATOM     22  F1  UNL A   1      -7.921  -5.453 -13.943  0.00  0.00    -0.206 F 
ATOM     23  F2  UNL A   1      -6.706  -7.248 -13.814  0.00  0.00    -0.206 F 
ENDBRANCH  15  16
ENDBRANCH   1   7
BRANCH   6  24
ATOM     24  N1  UNL A   1      -2.021  -1.838 -15.206  0.00  0.00    -0.329 N 
ATOM     25  C7  UNL A   1      -1.683  -3.100 -15.884  0.00  0.00    +0.105 C 
ATOM     26  C8  UNL A   1      -2.979  -3.787 -16.338  0.00  0.00    +0.026 C 
ATOM     27  C9  UNL A   1      -3.803  -2.851 -17.205  0.00  0.00    -0.026 C 
ATOM     28  C10 UNL A   1      -4.045  -1.500 -16.559  0.00  0.00    +0.026 C 
ATOM     29  C11 UNL A   1      -2.727  -0.876 -16.076  0.00  0.00    +0.105 C 
ATOM     30  C12 UNL A   1      -3.655  -2.923 -18.710  0.00  0.00    +0.007 C 
ATOM     31  C13 UNL A   1      -4.902  -3.448 -18.056  0.00  0.00    +0.007 C 
ENDBRANCH   6  24
BRANCH   4  32
ATOM     32  N2  UNL A   1       2.577  -0.431 -15.078  0.00  0.00    -0.221 N 
ATOM     33  H16 UNL A   1       2.713  -1.105 -15.836  0.00  0.00    +0.173 HD
BRANCH  32  34
ATOM     34  S1  UNL A   1       2.993   1.111 -15.643  0.00  0.00    +0.045 S 
ATOM     35  O2  UNL A   1       1.832   1.579 -16.371  0.00  0.00    -0.155 OA
ATOM     36  O3  UNL A   1       3.586   1.897 -14.585  0.00  0.00    -0.155 OA
BRANCH  34  37
ATOM     37  C14 UNL A   1       4.250   0.706 -16.834  0.00  0.00    +0.216 C 
BRANCH  37  38
ATOM     38  C15 UNL A   1       3.613   0.364 -18.165  0.00  0.00    +0.180 C 
BRANCH  38  39
ATOM     39  O1  UNL A   1       4.627  -0.068 -19.069  0.00  0.00    -0.393 OA
ATOM     40  H21 UNL A   1       5.299  -0.535 -18.542  0.00  0.00    +0.209 HD
ENDBRANCH  38  39
ENDBRANCH  37  38
ENDBRANCH  34  37
ENDBRANCH  32  34
ENDBRANCH   4  32
TORSDOF 8
ENDMDL