MODEL 1
REMARK VINA RESULT:    -7.835      0.000      0.000
REMARK INTER + INTRA:         -12.101
REMARK INTER:                 -11.728
REMARK INTRA:                  -0.373
REMARK UNBOUND:                -0.373
REMARK  Name = agan4
REMARK  14 active torsions:
REMARK  status: ('A' for Active; 'I' for Inactive)
REMARK    1  A    between atoms: C1_1  and  N7_30
REMARK    2  A    between atoms: C2_2  and  C9_13
REMARK    3  A    between atoms: N3_7  and  C5_8
REMARK    4  A    between atoms: C5_8  and  C6_9
REMARK    5  A    between atoms: C5_8  and  C7_11
REMARK    6  A    between atoms: C5_8  and  C8_12
REMARK    7  A    between atoms: C6_9  and  O1_10
REMARK    8  A    between atoms: N4_14  and  C10_15
REMARK    9  A    between atoms: C14_19  and  S1_21
REMARK   10  A    between atoms: S1_21  and  N6_22
REMARK   11  A    between atoms: N6_22  and  C15_23
REMARK   12  A    between atoms: C15_23  and  C16_24
REMARK   13  A    between atoms: C15_23  and  C17_25
REMARK   14  A    between atoms: C15_23  and  C18_26
REMARK                            x       y       z     vdW  Elec       q    Type
REMARK                         _______ _______ _______ _____ _____    ______ ____
ROOT
ATOM      1  C1  UNL A   1      -1.342  -0.640 -14.348  0.00  0.00    +0.154 A 
ATOM      2  C2  UNL A   1      -2.023  -0.953 -13.156  0.00  0.00    +0.166 A 
ATOM      3  N1  UNL A   1      -1.455  -0.788 -11.916  0.00  0.00    -0.244 NA
ATOM      4  C3  UNL A   1      -0.192  -0.309 -11.923  0.00  0.00    +0.155 A 
ATOM      5  C4  UNL A   1       0.517   0.018 -13.081  0.00  0.00    +0.140 A 
ATOM      6  N2  UNL A   1      -0.063  -0.164 -14.281  0.00  0.00    -0.214 NA
ATOM      7  N3  UNL A   1       1.829   0.493 -12.963  0.00  0.00    -0.321 N 
ATOM      8  H2  UNL A   1       1.830   1.263 -12.295  0.00  0.00    +0.148 HD
ENDROOT
BRANCH   1   9
ATOM      9  N7  UNL A   1      -1.912  -0.779 -15.627  0.00  0.00    -0.313 N 
ATOM     10  C19 UNL A   1      -2.143   0.538 -16.257  0.00  0.00    +0.107 C 
ATOM     11  C20 UNL A   1      -2.974   0.361 -17.535  0.00  0.00    +0.026 C 
ATOM     12  C21 UNL A   1      -2.317  -0.634 -18.470  0.00  0.00    -0.026 C 
ATOM     13  C22 UNL A   1      -1.982  -1.949 -17.790  0.00  0.00    +0.026 C 
ATOM     14  C23 UNL A   1      -1.174  -1.705 -16.508  0.00  0.00    +0.107 C 
ATOM     15  C24 UNL A   1      -1.406  -0.123 -19.565  0.00  0.00    +0.007 C 
ATOM     16  C25 UNL A   1      -2.764  -0.667 -19.913  0.00  0.00    +0.007 C 
ENDBRANCH   1   9
BRANCH   2  17
ATOM     17  C9  UNL A   1      -3.419  -1.538 -13.098  0.00  0.00    +0.271 C 
ATOM     18  N4  UNL A   1      -3.451  -2.722 -12.385  0.00  0.00    -0.265 N 
ATOM     19  O4  UNL A   1      -4.393  -1.013 -13.619  0.00  0.00    -0.268 OA
ATOM     20  H12 UNL A   1      -2.563  -3.033 -12.005  0.00  0.00    +0.157 HD
BRANCH  18  21
ATOM     21  C10 UNL A   1      -4.531  -3.551 -12.100  0.00  0.00    +0.127 A 
ATOM     22  C11 UNL A   1      -4.885  -4.659 -12.863  0.00  0.00    +0.044 A 
ATOM     23  C12 UNL A   1      -5.989  -5.431 -12.490  0.00  0.00    +0.007 A 
ATOM     24  C13 UNL A   1      -6.719  -5.082 -11.364  0.00  0.00    +0.049 A 
ATOM     25  C14 UNL A   1      -6.296  -3.959 -10.679  0.00  0.00    +0.195 A 
ATOM     26  N5  UNL A   1      -5.215  -3.188 -10.996  0.00  0.00    -0.212 NA
BRANCH  25  27
ATOM     27  S1  UNL A   1      -7.117  -3.453  -9.170  0.00  0.00    +0.076 S 
ATOM     28  O2  UNL A   1      -6.485  -4.134  -8.062  0.00  0.00    -0.152 OA
ATOM     29  O3  UNL A   1      -8.537  -3.569  -9.423  0.00  0.00    -0.152 OA
BRANCH  27  30
ATOM     30  N6  UNL A   1      -6.761  -1.789  -9.099  0.00  0.00    -0.183 NA
ATOM     31  H16 UNL A   1      -5.765  -1.711  -9.340  0.00  0.00    +0.149 HD
BRANCH  30  32
ATOM     32  C15 UNL A   1      -7.105  -0.948  -7.914  0.00  0.00    +0.032 C 
ATOM     33  C16 UNL A   1      -6.963   0.517  -8.375  0.00  0.00    +0.029 C 
ATOM     34  C17 UNL A   1      -6.166  -1.172  -6.728  0.00  0.00    +0.029 C 
ATOM     35  C18 UNL A   1      -8.567  -1.182  -7.517  0.00  0.00    +0.029 C 
ENDBRANCH  30  32
ENDBRANCH  27  30
ENDBRANCH  25  27
ENDBRANCH  18  21
ENDBRANCH   2  17
BRANCH   7  36
ATOM     36  C5  UNL A   1       2.640   0.834 -14.162  0.00  0.00    +0.051 C 
ATOM     37  C7  UNL A   1       2.832  -0.386 -15.078  0.00  0.00    +0.033 C 
ATOM     38  C8  UNL A   1       2.063   2.031 -14.929  0.00  0.00    +0.033 C 
BRANCH  36  39
ATOM     39  C6  UNL A   1       4.043   1.250 -13.613  0.00  0.00    +0.180 C 
BRANCH  39  40
ATOM     40  O1  UNL A   1       4.250   0.736 -12.296  0.00  0.00    -0.393 OA
ATOM     41  H5  UNL A   1       3.357   0.546 -11.945  0.00  0.00    +0.209 HD
ENDBRANCH  39  40
ENDBRANCH  36  39
ENDBRANCH   7  36
TORSDOF 9
ENDMDL