@<TRIPOS>MOLECULE
agan9
 62 66 0 0 0
SMALL
GASTEIGER

@<TRIPOS>ATOM
      1 C           0.9979   -1.4549   -1.5330 C.ar    1  UNL1        0.0615
      2 C           2.1368   -1.5712   -2.3472 C.ar    1  UNL1        0.0796
      3 C           3.1486   -0.6281   -2.2556 C.ar    1  UNL1       -0.0131
      4 C           3.0955    0.4338   -1.3573 C.ar    1  UNL1        0.0515
      5 C           1.9586    0.5881   -0.5749 C.ar    1  UNL1       -0.0174
      6 C           0.9111   -0.3442   -0.6169 C.ar    1  UNL1        0.0441
      7 N          -0.2200   -0.1931    0.2143 N.pl3   1  UNL1       -0.3292
      8 C           0.0043   -0.1391    1.6767 C.3     1  UNL1        0.0127
      9 C           0.0979    1.2799    2.2484 C.3     1  UNL1       -0.0315
     10 C          -0.9954    2.1757    1.7078 C.3     1  UNL1       -0.0264
     11 C          -1.0932    2.1554    0.1977 C.3     1  UNL1       -0.0315
     12 C          -1.2587    0.7225   -0.3134 C.3     1  UNL1        0.0127
     13 C          -1.2632    3.4814    2.4225 C.3     1  UNL1       -0.0468
     14 C          -2.2596    2.3598    2.5198 C.3     1  UNL1       -0.0468
     15 N           4.1486    1.4017   -1.4073 N.pl3   1  UNL1       -0.2204
     16 S           4.6567    2.2518   -0.0469 S.O2    1  UNL1        0.0453
     17 C           3.7946    3.7960   -0.2526 C.3     1  UNL1        0.1078
     18 C           4.1641    4.7475    0.8648 C.3     1  UNL1        0.0653
     19 O           3.4402    5.9637    0.6971 O.3     1  UNL1       -0.3933
     20 O           4.1930    1.6012    1.1580 O.2     1  UNL1       -0.1551
     21 O           6.0651    2.5094   -0.2637 O.2     1  UNL1       -0.1551
     22 N           2.3208   -2.5557   -3.2289 N.ar    1  UNL1       -0.2352
     23 C           1.3569   -3.4741   -3.3130 C.ar    1  UNL1        0.1187
     24 N           0.2308   -3.4944   -2.6041 N.ar    1  UNL1       -0.2199
     25 C           0.0469   -2.4987   -1.7154 C.ar    1  UNL1        0.1357
     26 N          -1.1509   -2.4587   -0.9620 N.pl3   1  UNL1       -0.2988
     27 C          -2.2727   -3.2974   -0.8780 C.ar    1  UNL1        0.0326
     28 C          -2.5662   -4.3071   -1.7964 C.ar    1  UNL1       -0.0405
     29 C          -3.7265   -5.0792   -1.6774 C.ar    1  UNL1       -0.0598
     30 C          -4.6224   -4.8464   -0.6370 C.ar    1  UNL1       -0.0587
     31 C          -4.3626   -3.8411    0.2959 C.ar    1  UNL1       -0.0487
     32 C          -3.2009   -3.0658    0.1539 C.ar    1  UNL1       -0.0376
     33 C          -5.3398   -3.5504    1.3953 C.3     1  UNL1       -0.0397
     34 H           4.0099   -0.7438   -2.9102 H       1  UNL1        0.0658
     35 H           1.8712    1.4448    0.0773 H       1  UNL1        0.0655
     36 H           0.8883   -0.7232    1.9613 H       1  UNL1        0.0464
     37 H          -0.8530   -0.6401    2.1445 H       1  UNL1        0.0464
     38 H           0.0511    1.2225    3.3431 H       1  UNL1        0.0286
     39 H           1.0686    1.7281    2.0150 H       1  UNL1        0.0286
     40 H          -1.9402    2.7595   -0.1494 H       1  UNL1        0.0286
     41 H          -0.1905    2.6105   -0.2251 H       1  UNL1        0.0286
     42 H          -1.2783    0.7122   -1.4103 H       1  UNL1        0.0464
     43 H          -2.2324    0.3395    0.0174 H       1  UNL1        0.0464
     44 H          -0.6819    3.7207    3.3066 H       1  UNL1        0.0271
     45 H          -1.5352    4.3517    1.8348 H       1  UNL1        0.0271
     46 H          -3.2042    2.4774    1.9996 H       1  UNL1        0.0271
     47 H          -2.3511    1.8470    3.4712 H       1  UNL1        0.0271
     48 H           4.9492    1.1745   -2.0009 H       1  UNL1        0.1733
     49 H           2.7181    3.6047   -0.2521 H       1  UNL1        0.0541
     50 H           4.0669    4.2174   -1.2255 H       1  UNL1        0.0541
     51 H           5.2345    4.9767    0.8526 H       1  UNL1        0.0574
     52 H           3.9098    4.3285    1.8438 H       1  UNL1        0.0574
     53 H           3.7175    6.5630    1.4132 H       1  UNL1        0.2095
     54 H           1.5031   -4.2782   -4.0255 H       1  UNL1        0.1048
     55 H          -1.0193   -1.8445   -0.1577 H       1  UNL1        0.1536
     56 H          -1.9039   -4.5091   -2.6314 H       1  UNL1        0.0636
     57 H          -3.9295   -5.8587   -2.4068 H       1  UNL1        0.0618
     58 H          -5.5234   -5.4504   -0.5635 H       1  UNL1        0.0620
     59 H          -3.0138   -2.2658    0.8671 H       1  UNL1        0.0639
     60 H          -5.8845   -4.4553    1.6845 H       1  UNL1        0.0278
     61 H          -6.0596   -2.7947    1.0662 H       1  UNL1        0.0278
     62 H          -4.8237   -3.1834    2.2888 H       1  UNL1        0.0278
@<TRIPOS>BOND
     1     1     2   ar
     2     2     3   ar
     3     3     4   ar
     4     4     5   ar
     5     5     6   ar
     6     6     7    1
     7     7     8    1
     8     8     9    1
     9     9    10    1
    10    10    11    1
    11    11    12    1
    12    10    13    1
    13    13    14    1
    14     4    15    1
    15    15    16    1
    16    16    17    1
    17    17    18    1
    18    18    19    1
    19    16    20    2
    20    16    21    2
    21     2    22   ar
    22    22    23   ar
    23    23    24   ar
    24    24    25   ar
    25    25    26    1
    26    26    27    1
    27    27    28   ar
    28    28    29   ar
    29    29    30   ar
    30    30    31   ar
    31    31    32   ar
    32    31    33    1
    33     6     1   ar
    34    12     7    1
    35    32    27   ar
    36    25     1   ar
    37    14    10    1
    38     3    34    1
    39     5    35    1
    40     8    36    1
    41     8    37    1
    42     9    38    1
    43     9    39    1
    44    11    40    1
    45    11    41    1
    46    12    42    1
    47    12    43    1
    48    13    44    1
    49    13    45    1
    50    14    46    1
    51    14    47    1
    52    15    48    1
    53    17    49    1
    54    17    50    1
    55    18    51    1
    56    18    52    1
    57    19    53    1
    58    23    54    1
    59    26    55    1
    60    28    56    1
    61    29    57    1
    62    30    58    1
    63    32    59    1
    64    33    60    1
    65    33    61    1
    66    33    62    1
