@<TRIPOS>MOLECULE
agan3
 72 76 0 0 0
SMALL
GASTEIGER

@<TRIPOS>ATOM
      1 C          -1.7504    1.9665   -0.2076 C.ar    1  UNL1        0.0405
      2 C          -2.4355    3.1707   -0.1588 C.ar    1  UNL1       -0.0382
      3 C          -3.6547    3.2229    0.5235 C.ar    1  UNL1       -0.0376
      4 C          -4.1621    2.0809    1.1532 C.ar    1  UNL1        0.0481
      5 C          -3.4736    0.8685    1.0947 C.ar    1  UNL1       -0.0338
      6 C          -2.2628    0.8230    0.4098 C.ar    1  UNL1       -0.0165
      7 C          -1.3792   -0.3835    0.1748 C.3     1  UNL1        0.0137
      8 C          -0.1772    0.2742   -0.5615 C.3     1  UNL1        0.0298
      9 N          -0.5247    1.6822   -0.8306 N.am    1  UNL1       -0.2663
     10 C           0.2261    2.5785   -1.5745 C.2     1  UNL1        0.2509
     11 C           1.5116    2.0788   -2.0988 C.ar    1  UNL1        0.0391
     12 C           2.6255    2.0241   -1.2600 C.ar    1  UNL1       -0.0232
     13 C           3.8225    1.5159   -1.7692 C.ar    1  UNL1        0.1060
     14 C           3.9144    1.0882   -3.0989 C.ar    1  UNL1       -0.0353
     15 C           2.7974    1.1745   -3.9327 C.ar    1  UNL1       -0.0592
     16 C           1.5926    1.6727   -3.4349 C.ar    1  UNL1       -0.0495
     17 S           5.2342    1.3962   -0.7041 S.O2    1  UNL1        0.0589
     18 N           4.6166    0.6487    0.6663 N.3     1  UNL1       -0.1846
     19 C           4.4966   -0.8137    0.8521 C.3     1  UNL1        0.0316
     20 C           5.8682   -1.4103    1.1839 C.3     1  UNL1       -0.0457
     21 C           3.5662   -1.0137    2.0630 C.3     1  UNL1       -0.0457
     22 C           3.8711   -1.5126   -0.3570 C.3     1  UNL1       -0.0457
     23 O           5.5628    2.7446   -0.3001 O.2     1  UNL1       -0.1530
     24 O           6.2086    0.5233   -1.3162 O.2     1  UNL1       -0.1530
     25 O          -0.0682    3.7364   -1.8503 O.2     1  UNL1       -0.2696
     26 C          -0.9398   -1.0392    1.5014 C.3     1  UNL1       -0.0413
     27 C          -0.1037   -2.2992    1.2722 C.3     1  UNL1       -0.0465
     28 C          -0.8456   -3.2714    0.3866 C.3     1  UNL1       -0.0291
     29 C          -1.2772   -2.6865   -0.9381 C.3     1  UNL1       -0.0465
     30 C          -2.1003   -1.4142   -0.7243 C.3     1  UNL1       -0.0413
     31 C          -0.4253   -4.7231    0.4175 C.3     1  UNL1       -0.0469
     32 C          -1.7307   -4.3108    1.0388 C.3     1  UNL1       -0.0469
     33 N          -5.4290    2.1521    1.8017 N.pl3   1  UNL1       -0.2209
     34 S          -6.7853    1.7082    0.8889 S.O2    1  UNL1        0.0403
     35 C          -7.3086    3.2810    0.2415 C.3     1  UNL1        0.0736
     36 O          -7.7725    1.2827    1.8594 O.2     1  UNL1       -0.1555
     37 O          -6.3933    0.8453   -0.2024 O.2     1  UNL1       -0.1555
     38 H          -2.0520    4.0667   -0.6353 H       1  UNL1        0.0637
     39 H          -4.1964    4.1633    0.5686 H       1  UNL1        0.0637
     40 H          -3.8893   -0.0273    1.5446 H       1  UNL1        0.0640
     41 H           0.0646   -0.2173   -1.5094 H       1  UNL1        0.0477
     42 H           0.7282    0.2762    0.0562 H       1  UNL1        0.0477
     43 H           2.5581    2.3709   -0.2321 H       1  UNL1        0.0644
     44 H           4.8513    0.6980   -3.4928 H       1  UNL1        0.0637
     45 H           2.8677    0.8580   -4.9712 H       1  UNL1        0.0618
     46 H           0.7221    1.7479   -4.0829 H       1  UNL1        0.0625
     47 H           4.8139    1.2053    1.4999 H       1  UNL1        0.1486
     48 H           6.3369   -0.8850    2.0241 H       1  UNL1        0.0248
     49 H           6.5583   -1.3504    0.3373 H       1  UNL1        0.0248
     50 H           5.7815   -2.4683    1.4565 H       1  UNL1        0.0248
     51 H           3.9846   -0.5545    2.9666 H       1  UNL1        0.0248
     52 H           3.4044   -2.0769    2.2727 H       1  UNL1        0.0248
     53 H           2.5881   -0.5502    1.8895 H       1  UNL1        0.0248
     54 H           2.9027   -1.0728   -0.6175 H       1  UNL1        0.0248
     55 H           4.5119   -1.4614   -1.2421 H       1  UNL1        0.0248
     56 H           3.7022   -2.5758   -0.1492 H       1  UNL1        0.0248
     57 H          -0.3713   -0.3295    2.1159 H       1  UNL1        0.0274
     58 H          -1.8249   -1.3136    2.0909 H       1  UNL1        0.0274
     59 H           0.1380   -2.7516    2.2416 H       1  UNL1        0.0271
     60 H           0.8506   -2.0435    0.7987 H       1  UNL1        0.0271
     61 H          -1.8742   -3.4064   -1.5113 H       1  UNL1        0.0271
     62 H          -0.3876   -2.4709   -1.5410 H       1  UNL1        0.0271
     63 H          -2.3476   -0.9736   -1.6988 H       1  UNL1        0.0274
     64 H          -3.0573   -1.6967   -0.2647 H       1  UNL1        0.0274
     65 H          -0.4636   -5.2981   -0.5017 H       1  UNL1        0.0271
     66 H           0.3780   -5.0220    1.0821 H       1  UNL1        0.0271
     67 H          -2.6463   -4.6062    0.5374 H       1  UNL1        0.0271
     68 H          -1.8055   -4.3307    2.1207 H       1  UNL1        0.0271
     69 H          -5.4773    1.6796    2.7065 H       1  UNL1        0.1733
     70 H          -7.4668    3.9723    1.0713 H       1  UNL1        0.0482
     71 H          -6.5502    3.6565   -0.4468 H       1  UNL1        0.0482
     72 H          -8.2475    3.1262   -0.2948 H       1  UNL1        0.0482
@<TRIPOS>BOND
     1     1     2   ar
     2     2     3   ar
     3     3     4   ar
     4     4     5   ar
     5     5     6   ar
     6     6     7    1
     7     7     8    1
     8     8     9    1
     9     9    10   am
    10    10    11    1
    11    11    12   ar
    12    12    13   ar
    13    13    14   ar
    14    14    15   ar
    15    15    16   ar
    16    13    17    1
    17    17    18    1
    18    18    19    1
    19    19    20    1
    20    19    21    1
    21    19    22    1
    22    17    23    2
    23    17    24    2
    24    10    25    2
    25     7    26    1
    26    26    27    1
    27    27    28    1
    28    28    29    1
    29    29    30    1
    30    28    31    1
    31    31    32    1
    32     4    33    1
    33    33    34    1
    34    34    35    1
    35    34    36    2
    36    34    37    2
    37     6     1   ar
    38    30     7    1
    39     9     1    1
    40    16    11   ar
    41    32    28    1
    42     2    38    1
    43     3    39    1
    44     5    40    1
    45     8    41    1
    46     8    42    1
    47    12    43    1
    48    14    44    1
    49    15    45    1
    50    16    46    1
    51    18    47    1
    52    20    48    1
    53    20    49    1
    54    20    50    1
    55    21    51    1
    56    21    52    1
    57    21    53    1
    58    22    54    1
    59    22    55    1
    60    22    56    1
    61    26    57    1
    62    26    58    1
    63    27    59    1
    64    27    60    1
    65    29    61    1
    66    29    62    1
    67    30    63    1
    68    30    64    1
    69    31    65    1
    70    31    66    1
    71    32    67    1
    72    32    68    1
    73    33    69    1
    74    35    70    1
    75    35    71    1
    76    35    72    1
