@<TRIPOS>MOLECULE
agan4
 74 77 0 0 0
SMALL
GASTEIGER

@<TRIPOS>ATOM
      1 C          -1.8273    0.0702   -0.0178 C.ar    1  UNL1        0.1542
      2 C          -0.4638    0.0267   -0.3697 C.ar    1  UNL1        0.1656
      3 N           0.1511   -1.1217   -0.8042 N.ar    1  UNL1       -0.2436
      4 C          -0.6465   -2.2118   -0.8609 C.ar    1  UNL1        0.0683
      5 C          -2.0005   -2.2116   -0.5250 C.ar    1  UNL1        0.1396
      6 N          -2.5719   -1.0725   -0.0946 N.ar    1  UNL1       -0.2137
      7 N          -2.7216   -3.4087   -0.6099 N.pl3   1  UNL1       -0.3206
      8 C          -4.1622   -3.4754   -0.2421 C.3     1  UNL1        0.0508
      9 C          -4.5794   -4.9659   -0.4505 C.3     1  UNL1        0.0649
     10 O          -3.7213   -5.8449    0.2800 O.3     1  UNL1       -0.3929
     11 C          -4.3812   -3.1244    1.2392 C.3     1  UNL1       -0.0419
     12 C          -5.0332   -2.6112   -1.1630 C.3     1  UNL1       -0.0419
     13 C           0.4791    1.2077   -0.2761 C.2     1  UNL1        0.2710
     14 N           1.7669    0.8682   -0.6460 N.am    1  UNL1       -0.2649
     15 C           2.9081    1.6616   -0.7035 C.ar    1  UNL1        0.1274
     16 C           2.9325    3.0145   -0.3778 C.ar    1  UNL1       -0.0214
     17 C           4.1343    3.7243   -0.4677 C.ar    1  UNL1       -0.0552
     18 C           5.2845    3.0720   -0.8834 C.ar    1  UNL1       -0.0164
     19 C           5.1563    1.7319   -1.1953 C.ar    1  UNL1        0.1953
     20 N           4.0097    0.9961   -1.1042 N.ar    1  UNL1       -0.2120
     21 S           6.5885    0.7692   -1.6726 S.O2    1  UNL1        0.0761
     22 N           6.2210   -0.7712   -1.0440 N.3     1  UNL1       -0.1832
     23 C           6.5649   -1.1658    0.3538 C.3     1  UNL1        0.0317
     24 C           5.8301   -2.4962    0.6150 C.3     1  UNL1       -0.0457
     25 C           6.1011   -0.1466    1.3961 C.3     1  UNL1       -0.0457
     26 C           8.0718   -1.4263    0.4648 C.3     1  UNL1       -0.0457
     27 O           7.7441    1.3105   -0.9915 O.2     1  UNL1       -0.1516
     28 O           6.5393    0.6585   -3.1151 O.2     1  UNL1       -0.1516
     29 O           0.1299    2.3248    0.0788 O.2     1  UNL1       -0.2680
     30 N          -2.4827    1.2404    0.4064 N.pl3   1  UNL1       -0.3133
     31 C          -2.8217    2.1101   -0.7404 C.3     1  UNL1        0.0141
     32 C          -3.3155    3.4705   -0.2293 C.3     1  UNL1       -0.0315
     33 C          -4.4681    3.2928    0.7404 C.3     1  UNL1       -0.0264
     34 C          -4.1540    2.3153    1.8565 C.3     1  UNL1       -0.0315
     35 C          -3.6415    0.9863    1.2838 C.3     1  UNL1        0.0141
     36 C          -5.8864    3.3802    0.2188 C.3     1  UNL1       -0.0468
     37 C          -5.3283    4.4944    1.0601 C.3     1  UNL1       -0.0468
     38 H          -0.1565   -3.1245   -1.1861 H       1  UNL1        0.0865
     39 H          -2.5666   -3.8097   -1.5347 H       1  UNL1        0.1481
     40 H          -4.5028   -5.2459   -1.5074 H       1  UNL1        0.0578
     41 H          -5.6101   -5.1460   -0.1273 H       1  UNL1        0.0578
     42 H          -2.8610   -5.3841    0.3375 H       1  UNL1        0.2095
     43 H          -4.2582   -2.0570    1.4387 H       1  UNL1        0.0251
     44 H          -5.3977   -3.3855    1.5556 H       1  UNL1        0.0251
     45 H          -3.6794   -3.6602    1.8881 H       1  UNL1        0.0251
     46 H          -4.8664   -1.5406   -1.0144 H       1  UNL1        0.0251
     47 H          -6.0979   -2.7965   -0.9802 H       1  UNL1        0.0251
     48 H          -4.8309   -2.8299   -2.2178 H       1  UNL1        0.0251
     49 H           1.9059   -0.0986   -0.9241 H       1  UNL1        0.1566
     50 H           2.0431    3.5421   -0.0516 H       1  UNL1        0.0652
     51 H           4.1611    4.7801   -0.2097 H       1  UNL1        0.0620
     52 H           6.2364    3.5861   -0.9568 H       1  UNL1        0.0653
     53 H           5.2245   -0.9181   -1.2425 H       1  UNL1        0.1487
     54 H           6.1223   -3.2604   -0.1149 H       1  UNL1        0.0248
     55 H           6.0506   -2.8850    1.6155 H       1  UNL1        0.0248
     56 H           4.7436   -2.3708    0.5367 H       1  UNL1        0.0248
     57 H           6.6145    0.8140    1.2971 H       1  UNL1        0.0248
     58 H           6.3016   -0.5095    2.4111 H       1  UNL1        0.0248
     59 H           5.0244    0.0388    1.3239 H       1  UNL1        0.0248
     60 H           8.4154   -2.1073   -0.3224 H       1  UNL1        0.0248
     61 H           8.6600   -0.5085    0.3819 H       1  UNL1        0.0248
     62 H           8.3224   -1.8784    1.4314 H       1  UNL1        0.0248
     63 H          -3.6064    1.6372   -1.3469 H       1  UNL1        0.0464
     64 H          -1.9609    2.2769   -1.3977 H       1  UNL1        0.0464
     65 H          -3.6072    4.0960   -1.0812 H       1  UNL1        0.0286
     66 H          -2.4981    3.9885    0.2879 H       1  UNL1        0.0286
     67 H          -3.3870    2.7576    2.5046 H       1  UNL1        0.0286
     68 H          -5.0359    2.1278    2.4802 H       1  UNL1        0.0286
     69 H          -3.3533    0.3376    2.1203 H       1  UNL1        0.0464
     70 H          -4.4526    0.4965    0.7286 H       1  UNL1        0.0464
     71 H          -6.0445    3.5754   -0.8362 H       1  UNL1        0.0271
     72 H          -6.6461    2.7454    0.6614 H       1  UNL1        0.0271
     73 H          -5.1047    5.4371    0.5723 H       1  UNL1        0.0271
     74 H          -5.7073    4.6077    2.0701 H       1  UNL1        0.0271
@<TRIPOS>BOND
     1     1     2   ar
     2     2     3   ar
     3     3     4   ar
     4     4     5   ar
     5     5     6   ar
     6     5     7    1
     7     7     8    1
     8     8     9    1
     9     9    10    1
    10     8    11    1
    11     8    12    1
    12     2    13    1
    13    13    14   am
    14    14    15    1
    15    15    16   ar
    16    16    17   ar
    17    17    18   ar
    18    18    19   ar
    19    19    20   ar
    20    19    21    1
    21    21    22    1
    22    22    23    1
    23    23    24    1
    24    23    25    1
    25    23    26    1
    26    21    27    2
    27    21    28    2
    28    13    29    2
    29     1    30    1
    30    30    31    1
    31    31    32    1
    32    32    33    1
    33    33    34    1
    34    34    35    1
    35    33    36    1
    36    36    37    1
    37     6     1   ar
    38    20    15   ar
    39    35    30    1
    40    37    33    1
    41     4    38    1
    42     7    39    1
    43     9    40    1
    44     9    41    1
    45    10    42    1
    46    11    43    1
    47    11    44    1
    48    11    45    1
    49    12    46    1
    50    12    47    1
    51    12    48    1
    52    14    49    1
    53    16    50    1
    54    17    51    1
    55    18    52    1
    56    22    53    1
    57    24    54    1
    58    24    55    1
    59    24    56    1
    60    25    57    1
    61    25    58    1
    62    25    59    1
    63    26    60    1
    64    26    61    1
    65    26    62    1
    66    31    63    1
    67    31    64    1
    68    32    65    1
    69    32    66    1
    70    34    67    1
    71    34    68    1
    72    35    69    1
    73    35    70    1
    74    36    71    1
    75    36    72    1
    76    37    73    1
    77    37    74    1
