@<TRIPOS>MOLECULE
agan8
 67 71 0 0 0
SMALL
GASTEIGER

@<TRIPOS>ATOM
      1 C          -0.6229   -0.4682   -1.6721 C.ar    1  UNL1        0.0034
      2 C          -1.1065   -1.6865   -2.1986 C.ar    1  UNL1       -0.0505
      3 C          -2.4709   -1.9298   -2.3395 C.ar    1  UNL1       -0.0386
      4 C          -3.3807   -0.9538   -1.9589 C.ar    1  UNL1        0.0495
      5 C          -2.9257    0.2614   -1.4433 C.ar    1  UNL1       -0.0177
      6 C          -1.5528    0.5326   -1.2658 C.ar    1  UNL1        0.0393
      7 N          -1.1334    1.7492   -0.7035 N.pl3   1  UNL1       -0.3293
      8 C          -0.3192    1.6574    0.5286 C.3     1  UNL1        0.0127
      9 C          -0.7877    2.6482    1.6021 C.3     1  UNL1       -0.0315
     10 C          -0.8057    4.0707    1.0739 C.3     1  UNL1       -0.0264
     11 C          -1.2010    4.1889   -0.3887 C.3     1  UNL1       -0.0315
     12 C          -1.9742    2.9485   -0.8523 C.3     1  UNL1        0.0127
     13 C          -1.2231    5.1700    2.0305 C.3     1  UNL1       -0.0468
     14 C           0.2111    5.0599    1.6085 C.3     1  UNL1       -0.0468
     15 N          -4.7705   -1.2245   -2.0961 N.pl3   1  UNL1       -0.2205
     16 S          -5.7762   -1.2654   -0.7483 S.O2    1  UNL1        0.0453
     17 C          -5.1563   -2.6546    0.1854 C.3     1  UNL1        0.1078
     18 C          -4.1334   -2.2470    1.2209 C.3     1  UNL1        0.0653
     19 O          -3.6391   -3.4190    1.8668 O.3     1  UNL1       -0.3933
     20 O          -7.0740   -1.6473   -1.2673 O.2     1  UNL1       -0.1551
     21 O          -5.6193   -0.0530    0.0246 O.2     1  UNL1       -0.1551
     22 C           0.8411   -0.2718   -1.6411 C.ar    1  UNL1       -0.0114
     23 C           1.6731   -1.1200   -0.8965 C.ar    1  UNL1       -0.0139
     24 C           3.0567   -0.9277   -0.8853 C.ar    1  UNL1        0.1218
     25 N           3.6261    0.0601   -1.6058 N.ar    1  UNL1       -0.2403
     26 C           2.8207    0.8727   -2.3236 C.ar    1  UNL1        0.0303
     27 C           1.4459    0.7495   -2.3729 C.ar    1  UNL1       -0.0357
     28 N           3.8650   -1.8057   -0.1208 N.pl3   1  UNL1       -0.3148
     29 C           3.6463   -1.6071    1.3216 C.3     1  UNL1        0.0189
     30 C           4.3792   -2.6963    2.0884 C.3     1  UNL1        0.0266
     31 C           5.8397   -2.7070    1.6940 C.3     1  UNL1        0.2518
     32 C           6.0580   -2.8205    0.2019 C.3     1  UNL1        0.0266
     33 C           5.2842   -1.7227   -0.5101 C.3     1  UNL1        0.0189
     34 F           6.4628   -3.7403    2.3191 F       1  UNL1       -0.2056
     35 F           6.4366   -1.5757    2.1552 F       1  UNL1       -0.2056
     36 H          -0.4035   -2.4504   -2.5293 H       1  UNL1        0.0625
     37 H          -2.8010   -2.8786   -2.7520 H       1  UNL1        0.0637
     38 H          -3.6662    1.0038   -1.1612 H       1  UNL1        0.0655
     39 H          -0.3508    0.6493    0.9607 H       1  UNL1        0.0464
     40 H           0.7232    1.8832    0.2760 H       1  UNL1        0.0464
     41 H          -0.1365    2.5644    2.4802 H       1  UNL1        0.0286
     42 H          -1.7998    2.3795    1.9305 H       1  UNL1        0.0286
     43 H          -0.2935    4.2992   -0.9959 H       1  UNL1        0.0286
     44 H          -1.8152    5.0813   -0.5545 H       1  UNL1        0.0286
     45 H          -2.2536    3.0813   -1.9044 H       1  UNL1        0.0464
     46 H          -2.8926    2.8557   -0.2596 H       1  UNL1        0.0464
     47 H          -1.7992    6.0070    1.6512 H       1  UNL1        0.0271
     48 H          -1.4721    4.9029    3.0521 H       1  UNL1        0.0271
     49 H           0.6003    5.8187    0.9377 H       1  UNL1        0.0271
     50 H           0.9328    4.7246    2.3452 H       1  UNL1        0.0271
     51 H          -5.0522   -1.8909   -2.8151 H       1  UNL1        0.1733
     52 H          -6.0188   -3.1126    0.6836 H       1  UNL1        0.0541
     53 H          -4.7733   -3.4077   -0.5104 H       1  UNL1        0.0541
     54 H          -3.2830   -1.7242    0.7784 H       1  UNL1        0.0574
     55 H          -4.5807   -1.5990    1.9815 H       1  UNL1        0.0574
     56 H          -3.0328   -3.1225    2.5689 H       1  UNL1        0.2095
     57 H           1.2436   -1.9419   -0.3324 H       1  UNL1        0.0658
     58 H           3.3301    1.6549   -2.8786 H       1  UNL1        0.0830
     59 H           0.8545    1.4398   -2.9658 H       1  UNL1        0.0639
     60 H           2.5833   -1.6702    1.5830 H       1  UNL1        0.0466
     61 H           4.0029   -0.6158    1.6323 H       1  UNL1        0.0466
     62 H           4.2828   -2.5214    3.1656 H       1  UNL1        0.0338
     63 H           3.9333   -3.6766    1.8806 H       1  UNL1        0.0338
     64 H           5.7316   -3.8081   -0.1459 H       1  UNL1        0.0338
     65 H           7.1252   -2.7342   -0.0298 H       1  UNL1        0.0338
     66 H           5.3975   -1.8741   -1.5914 H       1  UNL1        0.0466
     67 H           5.7095   -0.7426   -0.2548 H       1  UNL1        0.0466
@<TRIPOS>BOND
     1     1     2   ar
     2     2     3   ar
     3     3     4   ar
     4     4     5   ar
     5     5     6   ar
     6     6     7    1
     7     7     8    1
     8     8     9    1
     9     9    10    1
    10    10    11    1
    11    11    12    1
    12    10    13    1
    13    13    14    1
    14     4    15    1
    15    15    16    1
    16    16    17    1
    17    17    18    1
    18    18    19    1
    19    16    20    2
    20    16    21    2
    21     1    22    1
    22    22    23   ar
    23    23    24   ar
    24    24    25   ar
    25    25    26   ar
    26    26    27   ar
    27    24    28    1
    28    28    29    1
    29    29    30    1
    30    30    31    1
    31    31    32    1
    32    32    33    1
    33    31    34    1
    34    31    35    1
    35     6     1   ar
    36    12     7    1
    37    27    22   ar
    38    33    28    1
    39    14    10    1
    40     2    36    1
    41     3    37    1
    42     5    38    1
    43     8    39    1
    44     8    40    1
    45     9    41    1
    46     9    42    1
    47    11    43    1
    48    11    44    1
    49    12    45    1
    50    12    46    1
    51    13    47    1
    52    13    48    1
    53    14    49    1
    54    14    50    1
    55    15    51    1
    56    17    52    1
    57    17    53    1
    58    18    54    1
    59    18    55    1
    60    19    56    1
    61    23    57    1
    62    26    58    1
    63    27    59    1
    64    29    60    1
    65    29    61    1
    66    30    62    1
    67    30    63    1
    68    32    64    1
    69    32    65    1
    70    33    66    1
    71    33    67    1
