@<TRIPOS>MOLECULE
agan6
 70 75 0 0 0
SMALL
GASTEIGER

@<TRIPOS>ATOM
      1 C          -0.3132   -1.3697    1.5861 C.ar    1  UNL1        0.0283
      2 C          -0.5797   -2.4126    2.4957 C.ar    1  UNL1       -0.0485
      3 C          -1.6455   -3.2891    2.2967 C.ar    1  UNL1       -0.0386
      4 C          -2.4572   -3.1324    1.1807 C.ar    1  UNL1        0.0495
      5 C          -2.2285   -2.0872    0.2844 C.ar    1  UNL1       -0.0176
      6 C          -1.1632   -1.1836    0.4648 C.ar    1  UNL1        0.0413
      7 N          -0.9942   -0.0866   -0.4053 N.pl3   1  UNL1       -0.3293
      8 C          -1.5738    1.1571    0.1549 C.3     1  UNL1        0.0127
      9 C          -1.5584    2.2808   -0.8867 C.3     1  UNL1       -0.0315
     10 C          -2.3752    1.8998   -2.1100 C.3     1  UNL1       -0.0264
     11 C          -2.4352    0.4062   -2.3831 C.3     1  UNL1       -0.0315
     12 C          -1.1853   -0.3040   -1.8531 C.3     1  UNL1        0.0127
     13 C          -3.6020    2.7224   -2.4504 C.3     1  UNL1       -0.0468
     14 C          -2.3647    2.8561   -3.2860 C.3     1  UNL1       -0.0468
     15 N          -3.5820   -3.9907    0.9871 N.pl3   1  UNL1       -0.2205
     16 S          -5.0482   -3.5093    1.6866 S.O2    1  UNL1        0.0453
     17 C          -5.7772   -2.4844    0.4253 C.3     1  UNL1        0.1078
     18 C          -5.9828   -3.2376   -0.8690 C.3     1  UNL1        0.0653
     19 O          -6.4915   -2.3403   -1.8537 O.3     1  UNL1       -0.3933
     20 O          -4.7829   -2.7066    2.8592 O.2     1  UNL1       -0.1551
     21 O          -5.8340   -4.7224    1.7842 O.2     1  UNL1       -0.1551
     22 C           0.8545   -0.5183    1.8645 C.ar    1  UNL1        0.1113
     23 S           2.0787   -0.2955    0.6852 S.2     1  UNL1       -0.0653
     24 C           2.9745    0.7157    1.7655 C.ar    1  UNL1        0.0605
     25 C           2.2780    0.7609    2.9799 C.ar    1  UNL1        0.0807
     26 N           1.0948    0.0423    3.0303 N.ar    1  UNL1       -0.2389
     27 C           2.8044    1.5095    4.0512 C.ar    1  UNL1       -0.0351
     28 C           4.0036    2.1988    3.8939 C.ar    1  UNL1       -0.0579
     29 C           4.6788    2.1471    2.6800 C.ar    1  UNL1       -0.0394
     30 C           4.1980    1.4117    1.5750 C.ar    1  UNL1        0.0457
     31 N           4.9953    1.4563    0.4018 N.pl3   1  UNL1       -0.3286
     32 C           4.3193    2.1069   -0.7300 C.3     1  UNL1        0.0176
     33 C           5.3556    2.3910   -1.8057 C.3     1  UNL1        0.0265
     34 C           6.0712    1.1066   -2.1705 C.3     1  UNL1        0.2518
     35 C           6.6726    0.3844   -0.9825 C.3     1  UNL1        0.0265
     36 C           5.6007    0.1580    0.0719 C.3     1  UNL1        0.0176
     37 F           5.2026    0.2753   -2.8077 F       1  UNL1       -0.2056
     38 F           7.0521    1.3815   -3.0704 F       1  UNL1       -0.2056
     39 H           0.0519   -2.5361    3.3747 H       1  UNL1        0.0625
     40 H          -1.8397   -4.0694    3.0269 H       1  UNL1        0.0637
     41 H          -2.9008   -1.9657   -0.5580 H       1  UNL1        0.0655
     42 H          -2.6087    0.9815    0.4788 H       1  UNL1        0.0464
     43 H          -1.0003    1.4823    1.0301 H       1  UNL1        0.0464
     44 H          -0.5243    2.4795   -1.1959 H       1  UNL1        0.0286
     45 H          -1.9426    3.2016   -0.4328 H       1  UNL1        0.0286
     46 H          -3.3300   -0.0052   -1.9003 H       1  UNL1        0.0286
     47 H          -2.5320    0.2118   -3.4575 H       1  UNL1        0.0286
     48 H          -0.3027    0.1045   -2.3619 H       1  UNL1        0.0464
     49 H          -1.2116   -1.3690   -2.1129 H       1  UNL1        0.0464
     50 H          -3.8725    3.5538   -1.8086 H       1  UNL1        0.0271
     51 H          -4.4582    2.2215   -2.8902 H       1  UNL1        0.0271
     52 H          -1.7957    3.7762   -3.2022 H       1  UNL1        0.0271
     53 H          -2.3877    2.4534   -4.2926 H       1  UNL1        0.0271
     54 H          -3.4144   -4.9687    1.2350 H       1  UNL1        0.1733
     55 H          -5.1526   -1.5971    0.2887 H       1  UNL1        0.0541
     56 H          -6.7383   -2.1309    0.8151 H       1  UNL1        0.0541
     57 H          -6.7008   -4.0539   -0.7403 H       1  UNL1        0.0574
     58 H          -5.0468   -3.6566   -1.2495 H       1  UNL1        0.0574
     59 H          -6.6992   -2.8696   -2.6444 H       1  UNL1        0.2095
     60 H           2.2655    1.5427    4.9930 H       1  UNL1        0.0639
     61 H           4.4100    2.7775    4.7191 H       1  UNL1        0.0619
     62 H           5.6146    2.6946    2.5748 H       1  UNL1        0.0636
     63 H           3.8679    3.0562   -0.4154 H       1  UNL1        0.0465
     64 H           3.5232    1.4778   -1.1433 H       1  UNL1        0.0465
     65 H           6.0832    3.1317   -1.4524 H       1  UNL1        0.0338
     66 H           4.8681    2.8148   -2.6904 H       1  UNL1        0.0338
     67 H           7.4981    0.9770   -0.5697 H       1  UNL1        0.0338
     68 H           7.0929   -0.5764   -1.2992 H       1  UNL1        0.0338
     69 H           6.0678   -0.2867    0.9596 H       1  UNL1        0.0465
     70 H           4.8553   -0.5513   -0.3051 H       1  UNL1        0.0465
@<TRIPOS>BOND
     1     1     2   ar
     2     2     3   ar
     3     3     4   ar
     4     4     5   ar
     5     5     6   ar
     6     6     7    1
     7     7     8    1
     8     8     9    1
     9     9    10    1
    10    10    11    1
    11    11    12    1
    12    10    13    1
    13    13    14    1
    14     4    15    1
    15    15    16    1
    16    16    17    1
    17    17    18    1
    18    18    19    1
    19    16    20    2
    20    16    21    2
    21     1    22    1
    22    22    23   ar
    23    23    24   ar
    24    24    25   ar
    25    25    26   ar
    26    25    27   ar
    27    27    28   ar
    28    28    29   ar
    29    29    30   ar
    30    30    31    1
    31    31    32    1
    32    32    33    1
    33    33    34    1
    34    34    35    1
    35    35    36    1
    36    34    37    1
    37    34    38    1
    38     6     1   ar
    39    12     7    1
    40    26    22   ar
    41    36    31    1
    42    14    10    1
    43    30    24   ar
    44     2    39    1
    45     3    40    1
    46     5    41    1
    47     8    42    1
    48     8    43    1
    49     9    44    1
    50     9    45    1
    51    11    46    1
    52    11    47    1
    53    12    48    1
    54    12    49    1
    55    13    50    1
    56    13    51    1
    57    14    52    1
    58    14    53    1
    59    15    54    1
    60    17    55    1
    61    17    56    1
    62    18    57    1
    63    18    58    1
    64    19    59    1
    65    27    60    1
    66    28    61    1
    67    29    62    1
    68    32    63    1
    69    32    64    1
    70    33    65    1
    71    33    66    1
    72    35    67    1
    73    35    68    1
    74    36    69    1
    75    36    70    1
