@<TRIPOS>MOLECULE
agan5
 77 82 0 0 0
SMALL
GASTEIGER

@<TRIPOS>ATOM
      1 C           0.9908   -1.7962   -0.3647 C.ar    1  UNL1        0.0615
      2 C           1.3739   -3.1415   -0.2515 C.ar    1  UNL1        0.0796
      3 C           2.7184   -3.4813   -0.3080 C.ar    1  UNL1       -0.0131
      4 C           3.7227   -2.5342   -0.5029 C.ar    1  UNL1        0.0515
      5 C           3.3665   -1.1947   -0.5731 C.ar    1  UNL1       -0.0174
      6 C           2.0163   -0.8023   -0.5359 C.ar    1  UNL1        0.0441
      7 N           1.6689    0.5743   -0.6559 N.pl3   1  UNL1       -0.3292
      8 C           2.1675    1.2258   -1.8974 C.3     1  UNL1        0.0127
      9 C           3.1855    2.3359   -1.6177 C.3     1  UNL1       -0.0315
     10 C           2.6262    3.3704   -0.6570 C.3     1  UNL1       -0.0264
     11 C           1.6990    2.8075    0.4072 C.3     1  UNL1       -0.0315
     12 C           1.9361    1.3078    0.6082 C.3     1  UNL1        0.0127
     13 C           2.3257    4.7608   -1.1808 C.3     1  UNL1       -0.0468
     14 C           3.5160    4.5433   -0.2962 C.3     1  UNL1       -0.0468
     15 N           5.0795   -2.9899   -0.4517 N.pl3   1  UNL1       -0.2204
     16 S           6.3259   -2.2193   -1.2767 S.O2    1  UNL1        0.0453
     17 C           7.0205   -1.1607   -0.0233 C.3     1  UNL1        0.1078
     18 C           7.5854   -1.9473    1.1375 C.3     1  UNL1        0.0653
     19 O           8.0814   -1.0359    2.1153 O.3     1  UNL1       -0.3933
     20 O           5.7853   -1.4008   -2.3391 O.2     1  UNL1       -0.1551
     21 O           7.2931   -3.2596   -1.5589 O.2     1  UNL1       -0.1551
     22 N           0.5085   -4.1442   -0.0893 N.ar    1  UNL1       -0.2352
     23 C          -0.7855   -3.8195   -0.0480 C.ar    1  UNL1        0.1187
     24 N          -1.2900   -2.5911   -0.1448 N.ar    1  UNL1       -0.2199
     25 C          -0.4139   -1.5798   -0.3044 C.ar    1  UNL1        0.1357
     26 N          -0.8946   -0.2508   -0.3822 N.pl3   1  UNL1       -0.2988
     27 C          -2.1760    0.3224   -0.3538 C.ar    1  UNL1        0.0344
     28 C          -2.3128    1.6618   -0.7499 C.ar    1  UNL1       -0.0375
     29 C          -3.5521    2.3102   -0.7244 C.ar    1  UNL1       -0.0470
     30 C          -4.6795    1.5943   -0.3090 C.ar    1  UNL1       -0.0376
     31 C          -4.5898    0.2577    0.1101 C.ar    1  UNL1        0.0317
     32 C          -3.3240   -0.3528    0.0809 C.ar    1  UNL1       -0.0194
     33 N          -5.7675   -0.4005    0.5271 N.pl3   1  UNL1       -0.3295
     34 C          -5.7638   -1.8690    0.4367 C.3     1  UNL1        0.0176
     35 C          -7.1884   -2.3748    0.5899 C.3     1  UNL1        0.0265
     36 C          -7.7708   -1.8546    1.8852 C.3     1  UNL1        0.2518
     37 C          -7.6933   -0.3501    2.0214 C.3     1  UNL1        0.0265
     38 C          -6.2603    0.1136    1.8182 C.3     1  UNL1        0.0176
     39 F          -9.0688   -2.2460    1.9822 F       1  UNL1       -0.2056
     40 F          -7.1271   -2.4348    2.9340 F       1  UNL1       -0.2056
     41 C          -3.6824    3.7254   -1.2010 C.3     1  UNL1       -0.0396
     42 H           2.9771   -4.5330   -0.2036 H       1  UNL1        0.0658
     43 H           4.1250   -0.4273   -0.6704 H       1  UNL1        0.0655
     44 H           2.5870    0.5012   -2.6064 H       1  UNL1        0.0464
     45 H           1.2943    1.6668   -2.3947 H       1  UNL1        0.0464
     46 H           4.0960    1.9067   -1.1824 H       1  UNL1        0.0286
     47 H           3.4785    2.8025   -2.5657 H       1  UNL1        0.0286
     48 H           1.8423    3.3270    1.3616 H       1  UNL1        0.0286
     49 H           0.6597    2.9744    0.0994 H       1  UNL1        0.0286
     50 H           2.9670    1.1465    0.9500 H       1  UNL1        0.0464
     51 H           1.2634    0.9403    1.3925 H       1  UNL1        0.0464
     52 H           2.5060    4.9792   -2.2279 H       1  UNL1        0.0271
     53 H           1.4816    5.3027   -0.7669 H       1  UNL1        0.0271
     54 H           3.4772    4.9453    0.7105 H       1  UNL1        0.0271
     55 H           4.5000    4.6090   -0.7487 H       1  UNL1        0.0271
     56 H           5.2128   -4.0031   -0.4880 H       1  UNL1        0.1733
     57 H           7.8095   -0.5706   -0.5025 H       1  UNL1        0.0541
     58 H           6.2549   -0.4522    0.3051 H       1  UNL1        0.0541
     59 H           8.4106   -2.5910    0.8168 H       1  UNL1        0.0574
     60 H           6.8222   -2.5712    1.6120 H       1  UNL1        0.0574
     61 H           8.4837   -1.5664    2.8262 H       1  UNL1        0.2095
     62 H          -1.4926   -4.6319    0.0778 H       1  UNL1        0.1048
     63 H          -0.1572    0.3590   -0.7408 H       1  UNL1        0.1536
     64 H          -1.4385    2.2091   -1.0945 H       1  UNL1        0.0639
     65 H          -5.6547    2.0762   -0.3274 H       1  UNL1        0.0639
     66 H          -3.2207   -1.3726    0.4290 H       1  UNL1        0.0655
     67 H          -5.3866   -2.1954   -0.5405 H       1  UNL1        0.0465
     68 H          -5.1278   -2.3093    1.2154 H       1  UNL1        0.0465
     69 H          -7.1971   -3.4703    0.5867 H       1  UNL1        0.0338
     70 H          -7.8070   -2.0450   -0.2535 H       1  UNL1        0.0338
     71 H          -8.3552    0.1213    1.2848 H       1  UNL1        0.0338
     72 H          -8.0461   -0.0441    3.0124 H       1  UNL1        0.0338
     73 H          -6.2514    1.2097    1.8527 H       1  UNL1        0.0465
     74 H          -5.6210   -0.2440    2.6363 H       1  UNL1        0.0465
     75 H          -3.8847    3.7413   -2.2763 H       1  UNL1        0.0278
     76 H          -4.4965    4.2399   -0.6797 H       1  UNL1        0.0278
     77 H          -2.7645    4.2897   -1.0050 H       1  UNL1        0.0278
@<TRIPOS>BOND
     1     1     2   ar
     2     2     3   ar
     3     3     4   ar
     4     4     5   ar
     5     5     6   ar
     6     6     7    1
     7     7     8    1
     8     8     9    1
     9     9    10    1
    10    10    11    1
    11    11    12    1
    12    10    13    1
    13    13    14    1
    14     4    15    1
    15    15    16    1
    16    16    17    1
    17    17    18    1
    18    18    19    1
    19    16    20    2
    20    16    21    2
    21     2    22   ar
    22    22    23   ar
    23    23    24   ar
    24    24    25   ar
    25    25    26    1
    26    26    27    1
    27    27    28   ar
    28    28    29   ar
    29    29    30   ar
    30    30    31   ar
    31    31    32   ar
    32    31    33    1
    33    33    34    1
    34    34    35    1
    35    35    36    1
    36    36    37    1
    37    37    38    1
    38    36    39    1
    39    36    40    1
    40    29    41    1
    41     6     1   ar
    42    12     7    1
    43    32    27   ar
    44    38    33    1
    45    25     1   ar
    46    14    10    1
    47     3    42    1
    48     5    43    1
    49     8    44    1
    50     8    45    1
    51     9    46    1
    52     9    47    1
    53    11    48    1
    54    11    49    1
    55    12    50    1
    56    12    51    1
    57    13    52    1
    58    13    53    1
    59    14    54    1
    60    14    55    1
    61    15    56    1
    62    17    57    1
    63    17    58    1
    64    18    59    1
    65    18    60    1
    66    19    61    1
    67    23    62    1
    68    26    63    1
    69    28    64    1
    70    30    65    1
    71    32    66    1
    72    34    67    1
    73    34    68    1
    74    35    69    1
    75    35    70    1
    76    37    71    1
    77    37    72    1
    78    38    73    1
    79    38    74    1
    80    41    75    1
    81    41    76    1
    82    41    77    1
