@<TRIPOS>MOLECULE
agan10
 70 75 0 0 0
SMALL
GASTEIGER

@<TRIPOS>ATOM
      1 C1          -0.9550   -1.3973   -0.0272 C.ar    1  UNL1        0.0283
      2 C2          -1.4364   -2.6041    0.5274 C.ar    1  UNL1       -0.0485
      3 C3          -2.5991   -2.6388    1.2976 C.ar    1  UNL1       -0.0386
      4 C4          -3.2926   -1.4617    1.5388 C.ar    1  UNL1        0.0495
      5 C5          -2.8328   -0.2603    1.0000 C.ar    1  UNL1       -0.0176
      6 C6          -1.6630   -0.1961    0.2117 C.ar    1  UNL1        0.0413
      7 N1          -1.3300    1.0913   -0.2477 N.pl3   1  UNL1       -0.3293
      8 C7          -1.0921    1.2527   -1.6921 C.3     1  UNL1        0.0127
      9 C8          -1.1541    2.7460   -2.0454 C.3     1  UNL1       -0.0315
     10 C9          -0.1778    3.5368   -1.1922 C.3     1  UNL1       -0.0264
     11 C10         -0.3384    3.2738    0.2944 C.3     1  UNL1       -0.0315
     12 C11         -0.3195    1.7669    0.5917 C.3     1  UNL1        0.0127
     13 C12          1.2042    3.8282   -1.7362 C.3     1  UNL1       -0.0468
     14 C13          0.1905    4.9340   -1.6381 C.3     1  UNL1       -0.0468
     15 N2          -4.5025   -1.4766    2.2963 N.pl3   1  UNL1       -0.2205
     16 S1          -5.8914   -2.0743    1.5306 S.O2    1  UNL1        0.0453
     17 C14         -6.1162   -3.6130    2.3938 C.3     1  UNL1        0.1078
     18 C15         -7.3726   -4.3017    1.9065 C.3     1  UNL1        0.0653
     19 O1          -7.5265   -5.5359    2.6032 O.3     1  UNL1       -0.3933
     20 O2          -6.9616   -1.1848    1.9311 O.2     1  UNL1       -0.1551
     21 O3          -5.6239   -2.3533    0.1377 O.2     1  UNL1       -0.1551
     22 C16          0.2946   -1.4612   -0.7908 C.ar    1  UNL1        0.1113
     23 N3           1.4433   -0.9569   -0.4016 N.ar    1  UNL1       -0.2371
     24 C17          2.4350   -1.1793   -1.3560 C.ar    1  UNL1        0.0998
     25 C18          1.9966   -1.8877   -2.4791 C.ar    1  UNL1        0.0413
     26 S2           0.3260   -2.2727   -2.3032 S.2     1  UNL1       -0.0671
     27 C19          2.8439   -2.2009   -3.5527 C.ar    1  UNL1       -0.0458
     28 C20          4.1687   -1.7814   -3.4868 C.ar    1  UNL1       -0.0588
     29 C21          4.6289   -1.0693   -2.3832 C.ar    1  UNL1       -0.0385
     30 C22          3.7952   -0.7385   -1.2875 C.ar    1  UNL1        0.0565
     31 N4           4.4028   -0.0037   -0.2213 N.pl3   1  UNL1       -0.3279
     32 C23          3.7537   -0.1682    1.0911 C.3     1  UNL1        0.0177
     33 C24          4.6565    0.4342    2.1556 C.3     1  UNL1        0.0265
     34 C25          4.9272    1.8832    1.8126 C.3     1  UNL1        0.2518
     35 C26          5.4908    2.0797    0.4220 C.3     1  UNL1        0.0265
     36 C27          4.5880    1.4092   -0.6008 C.3     1  UNL1        0.0177
     37 F1           3.7762    2.5995    1.9340 F       1  UNL1       -0.2056
     38 F2           5.7900    2.4069    2.7226 F       1  UNL1       -0.2056
     39 H1          -0.8923   -3.5336    0.3659 H       1  UNL1        0.0625
     40 H2          -2.9399   -3.5833    1.7088 H       1  UNL1        0.0637
     41 H3          -3.3897    0.6588    1.1693 H       1  UNL1        0.0655
     42 H4          -1.8539    0.7175   -2.2711 H       1  UNL1        0.0464
     43 H5          -0.1065    0.8726   -1.9773 H       1  UNL1        0.0464
     44 H6          -0.9442    2.8774   -3.1134 H       1  UNL1        0.0286
     45 H7          -2.1670    3.1270   -1.8644 H       1  UNL1        0.0286
     46 H8          -1.2953    3.6994    0.6218 H       1  UNL1        0.0286
     47 H9           0.4502    3.7691    0.8731 H       1  UNL1        0.0286
     48 H10         -0.5308    1.6181    1.6578 H       1  UNL1        0.0464
     49 H11          0.6800    1.3700    0.3870 H       1  UNL1        0.0464
     50 H12          1.4629    3.4625   -2.7236 H       1  UNL1        0.0271
     51 H13          2.0408    3.8520   -1.0469 H       1  UNL1        0.0271
     52 H14         -0.2364    5.3148   -2.5595 H       1  UNL1        0.0271
     53 H15          0.3426    5.6966   -0.8820 H       1  UNL1        0.0271
     54 H16         -4.7342   -0.5873    2.7450 H       1  UNL1        0.1733
     55 H17         -5.2406   -4.2443    2.2182 H       1  UNL1        0.0541
     56 H18         -6.1805   -3.4035    3.4661 H       1  UNL1        0.0541
     57 H19         -7.3175   -4.5159    0.8343 H       1  UNL1        0.0574
     58 H20         -8.2595   -3.6875    2.0924 H       1  UNL1        0.0574
     59 H21         -8.3431   -5.9507    2.2719 H       1  UNL1        0.2095
     60 H22          2.4783   -2.7563   -4.4113 H       1  UNL1        0.0629
     61 H23          4.8515   -2.0157   -4.3003 H       1  UNL1        0.0619
     62 H24          5.6764   -0.7726   -2.3539 H       1  UNL1        0.0637
     63 H25          2.7833    0.3396    1.1254 H       1  UNL1        0.0465
     64 H26          3.6061   -1.2307    1.3196 H       1  UNL1        0.0465
     65 H27          4.1743    0.3643    3.1367 H       1  UNL1        0.0338
     66 H28          5.6023   -0.1170    2.2192 H       1  UNL1        0.0338
     67 H29          5.5753    3.1489    0.1987 H       1  UNL1        0.0338
     68 H30          6.5026    1.6595    0.3718 H       1  UNL1        0.0338
     69 H31          3.6179    1.9204   -0.6499 H       1  UNL1        0.0465
     70 H32          5.0603    1.5053   -1.5860 H       1  UNL1        0.0465
@<TRIPOS>BOND
     1     1     2   ar
     2     2     3   ar
     3     3     4   ar
     4     4     5   ar
     5     5     6   ar
     6     6     7    1
     7     7     8    1
     8     8     9    1
     9     9    10    1
    10    10    11    1
    11    11    12    1
    12    10    13    1
    13    13    14    1
    14     4    15    1
    15    15    16    1
    16    16    17    1
    17    17    18    1
    18    18    19    1
    19    16    20    2
    20    16    21    2
    21     1    22    1
    22    22    23   ar
    23    23    24   ar
    24    24    25   ar
    25    25    26   ar
    26    25    27   ar
    27    27    28   ar
    28    28    29   ar
    29    29    30   ar
    30    30    31    1
    31    31    32    1
    32    32    33    1
    33    33    34    1
    34    34    35    1
    35    35    36    1
    36    34    37    1
    37    34    38    1
    38     6     1   ar
    39    12     7    1
    40    26    22   ar
    41    36    31    1
    42    14    10    1
    43    30    24   ar
    44     2    39    1
    45     3    40    1
    46     5    41    1
    47     8    42    1
    48     8    43    1
    49     9    44    1
    50     9    45    1
    51    11    46    1
    52    11    47    1
    53    12    48    1
    54    12    49    1
    55    13    50    1
    56    13    51    1
    57    14    52    1
    58    14    53    1
    59    15    54    1
    60    17    55    1
    61    17    56    1
    62    18    57    1
    63    18    58    1
    64    19    59    1
    65    27    60    1
    66    28    61    1
    67    29    62    1
    68    32    63    1
    69    32    64    1
    70    33    65    1
    71    33    66    1
    72    35    67    1
    73    35    68    1
    74    36    69    1
    75    36    70    1
