MODEL 1
REMARK VINA RESULT:    -7.955      0.000      0.000
REMARK INTER + INTRA:         -13.090
REMARK INTER:                 -11.442
REMARK INTRA:                  -1.648
REMARK UNBOUND:                -1.648
REMARK  Name = agan6
REMARK  8 active torsions:
REMARK  status: ('A' for Active; 'I' for Inactive)
REMARK    1  A    between atoms: C1_1  and  C16_22
REMARK    2  A    between atoms: C4_4  and  N2_15
REMARK    3  A    between atoms: C6_6  and  N1_7
REMARK    4  A    between atoms: N2_15  and  S1_16
REMARK    5  A    between atoms: S1_16  and  C14_17
REMARK    6  A    between atoms: C14_17  and  C15_18
REMARK    7  A    between atoms: C15_18  and  O1_19
REMARK    8  A    between atoms: C22_30  and  N4_31
REMARK                            x       y       z     vdW  Elec       q    Type
REMARK                         _______ _______ _______ _____ _____    ______ ____
ROOT
ATOM      1  C1  UNL A   1      -1.306  -0.216 -12.880  0.00  0.00    +0.028 A 
ATOM      2  C2  UNL A   1      -0.057  -0.782 -12.550  0.00  0.00    +0.014 A 
ATOM      3  C3  UNL A   1       0.946  -0.924 -13.507  0.00  0.00    +0.025 A 
ATOM      4  C4  UNL A   1       0.711  -0.499 -14.808  0.00  0.00    +0.050 A 
ATOM      5  C5  UNL A   1      -0.529   0.035 -15.162  0.00  0.00    +0.048 A 
ATOM      6  C6  UNL A   1      -1.562   0.184 -14.217  0.00  0.00    +0.041 A 
ENDROOT
BRANCH   1   7
ATOM      7  C16 UNL A   1      -2.288  -0.078 -11.792  0.00  0.00    +0.111 A 
ATOM      8  S2  UNL A   1      -3.707  -1.040 -11.765  0.00  0.00    -0.065 S 
ATOM      9  C17 UNL A   1      -4.235  -0.268 -10.310  0.00  0.00    +0.060 A 
ATOM     10  C18 UNL A   1      -3.292   0.715  -9.984  0.00  0.00    +0.081 A 
ATOM     11  N3  UNL A   1      -2.210   0.827 -10.841  0.00  0.00    -0.239 NA
ATOM     12  C19 UNL A   1      -3.492   1.512  -8.840  0.00  0.00    +0.029 A 
ATOM     13  C20 UNL A   1      -4.617   1.315  -8.043  0.00  0.00    +0.004 A 
ATOM     14  C21 UNL A   1      -5.540   0.332  -8.379  0.00  0.00    +0.024 A 
ATOM     15  C22 UNL A   1      -5.390  -0.494  -9.514  0.00  0.00    +0.046 A 
BRANCH  15  16
ATOM     16  N4  UNL A   1      -6.412  -1.455  -9.725  0.00  0.00    -0.329 N 
ATOM     17  C23 UNL A   1      -7.488  -0.969 -10.602  0.00  0.00    +0.111 C 
ATOM     18  C24 UNL A   1      -8.338  -2.159 -11.019  0.00  0.00    +0.094 C 
ATOM     19  C25 UNL A   1      -8.830  -2.887  -9.786  0.00  0.00    +0.252 C 
ATOM     20  C26 UNL A   1      -7.723  -3.290  -8.833  0.00  0.00    +0.094 C 
ATOM     21  C27 UNL A   1      -6.888  -2.070  -8.478  0.00  0.00    +0.111 C 
ATOM     22  F1  UNL A   1      -9.724  -2.101  -9.127  0.00  0.00    -0.206 F 
ATOM     23  F2  UNL A   1      -9.518  -3.996 -10.165  0.00  0.00    -0.206 F 
ENDBRANCH  15  16
ENDBRANCH   1   7
BRANCH   6  24
ATOM     24  N1  UNL A   1      -2.834   0.651 -14.608  0.00  0.00    -0.329 N 
ATOM     25  C7  UNL A   1      -3.417  -0.177 -15.691  0.00  0.00    +0.105 C 
ATOM     26  C8  UNL A   1      -4.699   0.464 -16.234  0.00  0.00    +0.026 C 
ATOM     27  C9  UNL A   1      -4.417   1.843 -16.807  0.00  0.00    -0.026 C 
ATOM     28  C10 UNL A   1      -3.242   2.560 -16.163  0.00  0.00    +0.026 C 
ATOM     29  C11 UNL A   1      -3.045   2.108 -14.712  0.00  0.00    +0.105 C 
ATOM     30  C12 UNL A   1      -4.654   2.078 -18.285  0.00  0.00    +0.007 C 
ATOM     31  C13 UNL A   1      -5.601   2.662 -17.280  0.00  0.00    +0.007 C 
ENDBRANCH   6  24
BRANCH   4  32
ATOM     32  N2  UNL A   1       1.710  -0.682 -15.813  0.00  0.00    -0.221 N 
ATOM     33  H16 UNL A   1       1.394  -1.204 -16.633  0.00  0.00    +0.173 HD
BRANCH  32  34
ATOM     34  S1  UNL A   1       2.526   0.704 -16.347  0.00  0.00    +0.045 S 
ATOM     35  O2  UNL A   1       3.091   1.400 -15.214  0.00  0.00    -0.155 OA
ATOM     36  O3  UNL A   1       1.593   1.370 -17.233  0.00  0.00    -0.155 OA
BRANCH  34  37
ATOM     37  C14 UNL A   1       3.844   0.035 -17.342  0.00  0.00    +0.216 C 
BRANCH  37  38
ATOM     38  C15 UNL A   1       3.496   0.029 -18.814  0.00  0.00    +0.180 C 
BRANCH  38  39
ATOM     39  O1  UNL A   1       3.547   1.366 -19.308  0.00  0.00    -0.393 OA
ATOM     40  H21 UNL A   1       2.929   1.893 -18.771  0.00  0.00    +0.209 HD
ENDBRANCH  38  39
ENDBRANCH  37  38
ENDBRANCH  34  37
ENDBRANCH  32  34
ENDBRANCH   4  32
TORSDOF 8
ENDMDL
MODEL 2
REMARK VINA RESULT:    -7.823      0.750      1.189
REMARK INTER + INTRA:         -12.902
REMARK INTER:                 -11.328
REMARK INTRA:                  -1.573
REMARK UNBOUND:                -1.648
REMARK  Name = agan6
REMARK  8 active torsions:
REMARK  status: ('A' for Active; 'I' for Inactive)
REMARK    1  A    between atoms: C1_1  and  C16_22
REMARK    2  A    between atoms: C4_4  and  N2_15
REMARK    3  A    between atoms: C6_6  and  N1_7
REMARK    4  A    between atoms: N2_15  and  S1_16
REMARK    5  A    between atoms: S1_16  and  C14_17
REMARK    6  A    between atoms: C14_17  and  C15_18
REMARK    7  A    between atoms: C15_18  and  O1_19
REMARK    8  A    between atoms: C22_30  and  N4_31
REMARK                            x       y       z     vdW  Elec       q    Type
REMARK                         _______ _______ _______ _____ _____    ______ ____
ROOT
ATOM      1  C1  UNL A   1      -1.468  -0.101 -12.919  0.00  0.00    +0.028 A 
ATOM      2  C2  UNL A   1      -0.282  -0.834 -12.707  0.00  0.00    +0.014 A 
ATOM      3  C3  UNL A   1       0.673  -0.967 -13.713  0.00  0.00    +0.025 A 
ATOM      4  C4  UNL A   1       0.453  -0.365 -14.945  0.00  0.00    +0.050 A 
ATOM      5  C5  UNL A   1      -0.729   0.339 -15.185  0.00  0.00    +0.048 A 
ATOM      6  C6  UNL A   1      -1.713   0.483 -14.189  0.00  0.00    +0.041 A 
ENDROOT
BRANCH   1   7
ATOM      7  C16 UNL A   1      -2.399   0.011 -11.784  0.00  0.00    +0.111 A 
ATOM      8  S2  UNL A   1      -3.785  -0.995 -11.685  0.00  0.00    -0.065 S 
ATOM      9  C17 UNL A   1      -4.264  -0.235 -10.207  0.00  0.00    +0.060 A 
ATOM     10  C18 UNL A   1      -3.338   0.778  -9.931  0.00  0.00    +0.081 A 
ATOM     11  N3  UNL A   1      -2.303   0.921 -10.840  0.00  0.00    -0.239 NA
ATOM     12  C19 UNL A   1      -3.505   1.573  -8.779  0.00  0.00    +0.029 A 
ATOM     13  C20 UNL A   1      -4.583   1.344  -7.928  0.00  0.00    +0.004 A 
ATOM     14  C21 UNL A   1      -5.490   0.331  -8.216  0.00  0.00    +0.024 A 
ATOM     15  C22 UNL A   1      -5.371  -0.494  -9.355  0.00  0.00    +0.046 A 
BRANCH  15  16
ATOM     16  N4  UNL A   1      -6.372  -1.487  -9.514  0.00  0.00    -0.329 N 
ATOM     17  C23 UNL A   1      -7.353  -1.154 -10.558  0.00  0.00    +0.111 C 
ATOM     18  C24 UNL A   1      -8.163  -2.404 -10.867  0.00  0.00    +0.094 C 
ATOM     19  C25 UNL A   1      -8.779  -2.936  -9.590  0.00  0.00    +0.252 C 
ATOM     20  C26 UNL A   1      -7.774  -3.175  -8.481  0.00  0.00    +0.094 C 
ATOM     21  C27 UNL A   1      -6.972  -1.905  -8.239  0.00  0.00    +0.111 C 
ATOM     22  F1  UNL A   1      -9.730  -2.067  -9.153  0.00  0.00    -0.206 F 
ATOM     23  F2  UNL A   1      -9.431  -4.098  -9.857  0.00  0.00    -0.206 F 
ENDBRANCH  15  16
ENDBRANCH   1   7
BRANCH   6  24
ATOM     24  N1  UNL A   1      -2.934   1.128 -14.472  0.00  0.00    -0.329 N 
ATOM     25  C7  UNL A   1      -3.868   0.244 -15.209  0.00  0.00    +0.105 C 
ATOM     26  C8  UNL A   1      -5.100   1.026 -15.679  0.00  0.00    +0.026 C 
ATOM     27  C9  UNL A   1      -4.702   2.157 -16.611  0.00  0.00    -0.026 C 
ATOM     28  C10 UNL A   1      -3.310   2.715 -16.362  0.00  0.00    +0.026 C 
ATOM     29  C11 UNL A   1      -2.899   2.542 -14.896  0.00  0.00    +0.105 C 
ATOM     30  C12 UNL A   1      -5.197   2.127 -18.044  0.00  0.00    +0.007 C 
ATOM     31  C13 UNL A   1      -5.794   3.102 -17.074  0.00  0.00    +0.007 C 
ENDBRANCH   6  24
BRANCH   4  32
ATOM     32  N2  UNL A   1       1.399  -0.532 -16.003  0.00  0.00    -0.221 N 
ATOM     33  H16 UNL A   1       1.042  -1.049 -16.810  0.00  0.00    +0.173 HD
BRANCH  32  34
ATOM     34  S1  UNL A   1       2.177   0.864 -16.567  0.00  0.00    +0.045 S 
ATOM     35  O2  UNL A   1       1.703   2.012 -15.829  0.00  0.00    -0.155 OA
ATOM     36  O3  UNL A   1       2.048   0.808 -18.009  0.00  0.00    -0.155 OA
BRANCH  34  37
ATOM     37  C14 UNL A   1       3.885   0.564 -16.158  0.00  0.00    +0.216 C 
BRANCH  37  38
ATOM     38  C15 UNL A   1       4.144   0.700 -14.675  0.00  0.00    +0.180 C 
BRANCH  38  39
ATOM     39  O1  UNL A   1       4.133   2.084 -14.326  0.00  0.00    -0.393 OA
ATOM     40  H21 UNL A   1       5.046   2.326 -14.089  0.00  0.00    +0.209 HD
ENDBRANCH  38  39
ENDBRANCH  37  38
ENDBRANCH  34  37
ENDBRANCH  32  34
ENDBRANCH   4  32
TORSDOF 8
ENDMDL
MODEL 3
REMARK VINA RESULT:    -7.803      0.913      1.005
REMARK INTER + INTRA:         -12.873
REMARK INTER:                 -11.676
REMARK INTRA:                  -1.196
REMARK UNBOUND:                -1.648
REMARK  Name = agan6
REMARK  8 active torsions:
REMARK  status: ('A' for Active; 'I' for Inactive)
REMARK    1  A    between atoms: C1_1  and  C16_22
REMARK    2  A    between atoms: C4_4  and  N2_15
REMARK    3  A    between atoms: C6_6  and  N1_7
REMARK    4  A    between atoms: N2_15  and  S1_16
REMARK    5  A    between atoms: S1_16  and  C14_17
REMARK    6  A    between atoms: C14_17  and  C15_18
REMARK    7  A    between atoms: C15_18  and  O1_19
REMARK    8  A    between atoms: C22_30  and  N4_31
REMARK                            x       y       z     vdW  Elec       q    Type
REMARK                         _______ _______ _______ _____ _____    ______ ____
ROOT
ATOM      1  C1  UNL A   1      -1.214   0.414 -12.554  0.00  0.00    +0.028 A 
ATOM      2  C2  UNL A   1       0.068  -0.061 -12.210  0.00  0.00    +0.014 A 
ATOM      3  C3  UNL A   1       1.138   0.044 -13.097  0.00  0.00    +0.025 A 
ATOM      4  C4  UNL A   1       0.936   0.628 -14.341  0.00  0.00    +0.050 A 
ATOM      5  C5  UNL A   1      -0.333   1.077 -14.712  0.00  0.00    +0.048 A 
ATOM      6  C6  UNL A   1      -1.432   0.977 -13.838  0.00  0.00    +0.041 A 
ENDROOT
BRANCH   1   7
ATOM      7  C16 UNL A   1      -2.271   0.288 -11.536  0.00  0.00    +0.111 A 
ATOM      8  S2  UNL A   1      -3.555  -0.831 -11.739  0.00  0.00    -0.065 S 
ATOM      9  C17 UNL A   1      -4.265  -0.328 -10.244  0.00  0.00    +0.060 A 
ATOM     10  C18 UNL A   1      -3.477   0.708  -9.727  0.00  0.00    +0.081 A 
ATOM     11  N3  UNL A   1      -2.367   1.061 -10.477  0.00  0.00    -0.239 NA
ATOM     12  C19 UNL A   1      -3.846   1.316  -8.511  0.00  0.00    +0.029 A 
ATOM     13  C20 UNL A   1      -4.984   0.882  -7.835  0.00  0.00    +0.004 A 
ATOM     14  C21 UNL A   1      -5.751  -0.151  -8.361  0.00  0.00    +0.024 A 
ATOM     15  C22 UNL A   1      -5.428  -0.794  -9.575  0.00  0.00    +0.046 A 
BRANCH  15  16
ATOM     16  N4  UNL A   1      -6.304  -1.833  -9.983  0.00  0.00    -0.329 N 
ATOM     17  C23 UNL A   1      -7.230  -1.420 -11.048  0.00  0.00    +0.111 C 
ATOM     18  C24 UNL A   1      -7.879  -2.669 -11.626  0.00  0.00    +0.094 C 
ATOM     19  C25 UNL A   1      -8.533  -3.461 -10.513  0.00  0.00    +0.252 C 
ATOM     20  C26 UNL A   1      -7.598  -3.790  -9.366  0.00  0.00    +0.094 C 
ATOM     21  C27 UNL A   1      -6.954  -2.511  -8.852  0.00  0.00    +0.111 C 
ATOM     22  F1  UNL A   1      -9.601  -2.766 -10.035  0.00  0.00    -0.206 F 
ATOM     23  F2  UNL A   1      -9.037  -4.615 -11.022  0.00  0.00    -0.206 F 
ENDBRANCH  15  16
ENDBRANCH   1   7
BRANCH   6  24
ATOM     24  N1  UNL A   1      -2.722   1.361 -14.257  0.00  0.00    -0.329 N 
ATOM     25  C7  UNL A   1      -3.453   0.239 -14.894  0.00  0.00    +0.105 C 
ATOM     26  C8  UNL A   1      -4.764   0.730 -15.519  0.00  0.00    +0.026 C 
ATOM     27  C9  UNL A   1      -4.499   1.775 -16.589  0.00  0.00    -0.026 C 
ATOM     28  C10 UNL A   1      -3.234   2.589 -16.370  0.00  0.00    +0.026 C 
ATOM     29  C11 UNL A   1      -2.891   2.689 -14.880  0.00  0.00    +0.105 C 
ATOM     30  C12 UNL A   1      -4.892   1.468 -18.020  0.00  0.00    +0.007 C 
ATOM     31  C13 UNL A   1      -5.699   2.449 -17.224  0.00  0.00    +0.007 C 
ENDBRANCH   6  24
BRANCH   4  32
ATOM     32  N2  UNL A   1       2.010   0.700 -15.281  0.00  0.00    -0.221 N 
ATOM     33  H16 UNL A   1       2.891   0.303 -14.947  0.00  0.00    +0.173 HD
BRANCH  32  34
ATOM     34  S1  UNL A   1       1.712   0.098 -16.837  0.00  0.00    +0.045 S 
ATOM     35  O2  UNL A   1       0.954   1.068 -17.593  0.00  0.00    -0.155 OA
ATOM     36  O3  UNL A   1       1.200  -1.241 -16.630  0.00  0.00    -0.155 OA
BRANCH  34  37
ATOM     37  C14 UNL A   1       3.347  -0.042 -17.532  0.00  0.00    +0.216 C 
BRANCH  37  38
ATOM     38  C15 UNL A   1       3.330   0.046 -19.041  0.00  0.00    +0.180 C 
BRANCH  38  39
ATOM     39  O1  UNL A   1       3.228   1.417 -19.426  0.00  0.00    -0.393 OA
ATOM     40  H21 UNL A   1       2.808   1.890 -18.686  0.00  0.00    +0.209 HD
ENDBRANCH  38  39
ENDBRANCH  37  38
ENDBRANCH  34  37
ENDBRANCH  32  34
ENDBRANCH   4  32
TORSDOF 8
ENDMDL
MODEL 4
REMARK VINA RESULT:    -7.624      2.651      3.854
REMARK INTER + INTRA:         -12.615
REMARK INTER:                 -11.317
REMARK INTRA:                  -1.299
REMARK UNBOUND:                -1.648
REMARK  Name = agan6
REMARK  8 active torsions:
REMARK  status: ('A' for Active; 'I' for Inactive)
REMARK    1  A    between atoms: C1_1  and  C16_22
REMARK    2  A    between atoms: C4_4  and  N2_15
REMARK    3  A    between atoms: C6_6  and  N1_7
REMARK    4  A    between atoms: N2_15  and  S1_16
REMARK    5  A    between atoms: S1_16  and  C14_17
REMARK    6  A    between atoms: C14_17  and  C15_18
REMARK    7  A    between atoms: C15_18  and  O1_19
REMARK    8  A    between atoms: C22_30  and  N4_31
REMARK                            x       y       z     vdW  Elec       q    Type
REMARK                         _______ _______ _______ _____ _____    ______ ____
ROOT
ATOM      1  C1  UNL A   1      -1.047  -1.447 -14.684  0.00  0.00    +0.028 A 
ATOM      2  C2  UNL A   1       0.206  -1.569 -14.051  0.00  0.00    +0.014 A 
ATOM      3  C3  UNL A   1       1.390  -1.306 -14.737  0.00  0.00    +0.025 A 
ATOM      4  C4  UNL A   1       1.333  -0.916 -16.069  0.00  0.00    +0.050 A 
ATOM      5  C5  UNL A   1       0.103  -0.819 -16.723  0.00  0.00    +0.048 A 
ATOM      6  C6  UNL A   1      -1.107  -1.085 -16.055  0.00  0.00    +0.041 A 
ENDROOT
BRANCH   1   7
ATOM      7  C16 UNL A   1      -2.242  -1.713 -13.865  0.00  0.00    +0.111 A 
ATOM      8  S2  UNL A   1      -2.659  -0.680 -12.561  0.00  0.00    -0.065 S 
ATOM      9  C17 UNL A   1      -4.031  -1.663 -12.186  0.00  0.00    +0.060 A 
ATOM     10  C18 UNL A   1      -4.031  -2.748 -13.072  0.00  0.00    +0.081 A 
ATOM     11  N3  UNL A   1      -3.003  -2.776 -13.999  0.00  0.00    -0.239 NA
ATOM     12  C19 UNL A   1      -5.044  -3.722 -12.971  0.00  0.00    +0.029 A 
ATOM     13  C20 UNL A   1      -6.035  -3.597 -12.000  0.00  0.00    +0.004 A 
ATOM     14  C21 UNL A   1      -6.022  -2.511 -11.133  0.00  0.00    +0.024 A 
ATOM     15  C22 UNL A   1      -5.031  -1.507 -11.189  0.00  0.00    +0.046 A 
BRANCH  15  16
ATOM     16  N4  UNL A   1      -5.151  -0.459 -10.240  0.00  0.00    -0.329 N 
ATOM     17  C23 UNL A   1      -3.867  -0.085  -9.629  0.00  0.00    +0.111 C 
ATOM     18  C24 UNL A   1      -4.054   1.235  -8.896  0.00  0.00    +0.094 C 
ATOM     19  C25 UNL A   1      -5.192   1.107  -7.906  0.00  0.00    +0.252 C 
ATOM     20  C26 UNL A   1      -6.486   0.616  -8.524  0.00  0.00    +0.094 C 
ATOM     21  C27 UNL A   1      -6.232  -0.685  -9.270  0.00  0.00    +0.111 C 
ATOM     22  F1  UNL A   1      -4.825   0.261  -6.906  0.00  0.00    -0.206 F 
ATOM     23  F2  UNL A   1      -5.410   2.311  -7.316  0.00  0.00    -0.206 F 
ENDBRANCH  15  16
ENDBRANCH   1   7
BRANCH   6  24
ATOM     24  N1  UNL A   1      -2.334  -1.061 -16.750  0.00  0.00    -0.329 N 
ATOM     25  C7  UNL A   1      -2.551  -2.303 -17.530  0.00  0.00    +0.105 C 
ATOM     26  C8  UNL A   1      -3.785  -2.170 -18.430  0.00  0.00    +0.026 C 
ATOM     27  C9  UNL A   1      -3.617  -1.028 -19.418  0.00  0.00    -0.026 C 
ATOM     28  C10 UNL A   1      -2.722   0.099 -18.927  0.00  0.00    +0.026 C 
ATOM     29  C11 UNL A   1      -2.748   0.199 -17.398  0.00  0.00    +0.105 C 
ATOM     30  C12 UNL A   1      -3.590  -1.346 -20.899  0.00  0.00    +0.007 C 
ATOM     31  C13 UNL A   1      -4.798  -0.687 -20.304  0.00  0.00    +0.007 C 
ENDBRANCH   6  24
BRANCH   4  32
ATOM     32  N2  UNL A   1       2.538  -0.690 -16.802  0.00  0.00    -0.221 N 
ATOM     33  H16 UNL A   1       2.535  -1.074 -17.750  0.00  0.00    +0.173 HD
BRANCH  32  34
ATOM     34  S1  UNL A   1       3.105   0.905 -16.876  0.00  0.00    +0.045 S 
ATOM     35  O2  UNL A   1       2.233   1.765 -16.110  0.00  0.00    -0.155 OA
ATOM     36  O3  UNL A   1       3.338   1.155 -18.284  0.00  0.00    -0.155 OA
BRANCH  34  37
ATOM     37  C14 UNL A   1       4.690   0.806 -16.069  0.00  0.00    +0.216 C 
BRANCH  37  38
ATOM     38  C15 UNL A   1       4.663   1.421 -14.688  0.00  0.00    +0.180 C 
BRANCH  38  39
ATOM     39  O1  UNL A   1       3.688   0.744 -13.897  0.00  0.00    -0.393 OA
ATOM     40  H21 UNL A   1       2.842   1.207 -14.028  0.00  0.00    +0.209 HD
ENDBRANCH  38  39
ENDBRANCH  37  38
ENDBRANCH  34  37
ENDBRANCH  32  34
ENDBRANCH   4  32
TORSDOF 8
ENDMDL
MODEL 5
REMARK VINA RESULT:    -7.315      2.554      3.678
REMARK INTER + INTRA:         -12.171
REMARK INTER:                 -10.463
REMARK INTRA:                  -1.708
REMARK UNBOUND:                -1.648
REMARK  Name = agan6
REMARK  8 active torsions:
REMARK  status: ('A' for Active; 'I' for Inactive)
REMARK    1  A    between atoms: C1_1  and  C16_22
REMARK    2  A    between atoms: C4_4  and  N2_15
REMARK    3  A    between atoms: C6_6  and  N1_7
REMARK    4  A    between atoms: N2_15  and  S1_16
REMARK    5  A    between atoms: S1_16  and  C14_17
REMARK    6  A    between atoms: C14_17  and  C15_18
REMARK    7  A    between atoms: C15_18  and  O1_19
REMARK    8  A    between atoms: C22_30  and  N4_31
REMARK                            x       y       z     vdW  Elec       q    Type
REMARK                         _______ _______ _______ _____ _____    ______ ____
ROOT
ATOM      1  C1  UNL A   1      -2.186  -0.758 -13.532  0.00  0.00    +0.028 A 
ATOM      2  C2  UNL A   1      -1.258  -0.248 -12.602  0.00  0.00    +0.014 A 
ATOM      3  C3  UNL A   1      -0.152   0.490 -13.018  0.00  0.00    +0.025 A 
ATOM      4  C4  UNL A   1       0.038   0.728 -14.373  0.00  0.00    +0.050 A 
ATOM      5  C5  UNL A   1      -0.853   0.206 -15.312  0.00  0.00    +0.048 A 
ATOM      6  C6  UNL A   1      -1.975  -0.549 -14.919  0.00  0.00    +0.041 A 
ENDROOT
BRANCH   1   7
ATOM      7  C16 UNL A   1      -3.340  -1.497 -12.992  0.00  0.00    +0.111 A 
ATOM      8  S2  UNL A   1      -4.583  -0.679 -12.139  0.00  0.00    -0.065 S 
ATOM      9  C17 UNL A   1      -5.420  -2.170 -11.876  0.00  0.00    +0.060 A 
ATOM     10  C18 UNL A   1      -4.643  -3.196 -12.427  0.00  0.00    +0.081 A 
ATOM     11  N3  UNL A   1      -3.461  -2.805 -13.034  0.00  0.00    -0.239 NA
ATOM     12  C19 UNL A   1      -5.091  -4.529 -12.334  0.00  0.00    +0.029 A 
ATOM     13  C20 UNL A   1      -6.299  -4.813 -11.702  0.00  0.00    +0.004 A 
ATOM     14  C21 UNL A   1      -7.059  -3.781 -11.165  0.00  0.00    +0.024 A 
ATOM     15  C22 UNL A   1      -6.658  -2.429 -11.229  0.00  0.00    +0.046 A 
BRANCH  15  16
ATOM     16  N4  UNL A   1      -7.540  -1.488 -10.638  0.00  0.00    -0.329 N 
ATOM     17  C23 UNL A   1      -7.071  -0.998  -9.333  0.00  0.00    +0.111 C 
ATOM     18  C24 UNL A   1      -7.899   0.220  -8.955  0.00  0.00    +0.094 C 
ATOM     19  C25 UNL A   1      -9.370  -0.138  -8.987  0.00  0.00    +0.252 C 
ATOM     20  C26 UNL A   1      -9.823  -0.743 -10.300  0.00  0.00    +0.094 C 
ATOM     21  C27 UNL A   1      -8.940  -1.933 -10.643  0.00  0.00    +0.111 C 
ATOM     22  F1  UNL A   1      -9.643  -1.007  -7.976  0.00  0.00    -0.206 F 
ATOM     23  F2  UNL A   1     -10.107   0.974  -8.730  0.00  0.00    -0.206 F 
ENDBRANCH  15  16
ENDBRANCH   1   7
BRANCH   6  24
ATOM     24  N1  UNL A   1      -2.820  -1.137 -15.883  0.00  0.00    -0.329 N 
ATOM     25  C7  UNL A   1      -2.219  -2.356 -16.475  0.00  0.00    +0.105 C 
ATOM     26  C8  UNL A   1      -3.060  -2.858 -17.654  0.00  0.00    +0.026 C 
ATOM     27  C9  UNL A   1      -3.144  -1.807 -18.748  0.00  0.00    -0.026 C 
ATOM     28  C10 UNL A   1      -3.038  -0.375 -18.251  0.00  0.00    +0.026 C 
ATOM     29  C11 UNL A   1      -3.549  -0.249 -16.812  0.00  0.00    +0.105 C 
ATOM     30  C12 UNL A   1      -2.549  -2.121 -20.106  0.00  0.00    +0.007 C 
ATOM     31  C13 UNL A   1      -4.038  -2.101 -19.936  0.00  0.00    +0.007 C 
ENDBRANCH   6  24
BRANCH   4  32
ATOM     32  N2  UNL A   1       1.192   1.442 -14.820  0.00  0.00    -0.221 N 
ATOM     33  H16 UNL A   1       1.418   2.270 -14.264  0.00  0.00    +0.173 HD
BRANCH  32  34
ATOM     34  S1  UNL A   1       2.613   0.546 -15.041  0.00  0.00    +0.045 S 
ATOM     35  O2  UNL A   1       3.522   1.282 -15.888  0.00  0.00    -0.155 OA
ATOM     36  O3  UNL A   1       2.166  -0.781 -15.413  0.00  0.00    -0.155 OA
BRANCH  34  37
ATOM     37  C14 UNL A   1       3.289   0.453 -13.394  0.00  0.00    +0.216 C 
BRANCH  37  38
ATOM     38  C15 UNL A   1       4.088   1.686 -13.039  0.00  0.00    +0.180 C 
BRANCH  38  39
ATOM     39  O1  UNL A   1       3.311   2.845 -13.337  0.00  0.00    -0.393 OA
ATOM     40  H21 UNL A   1       3.747   3.297 -14.081  0.00  0.00    +0.209 HD
ENDBRANCH  38  39
ENDBRANCH  37  38
ENDBRANCH  34  37
ENDBRANCH  32  34
ENDBRANCH   4  32
TORSDOF 8
ENDMDL
MODEL 6
REMARK VINA RESULT:    -7.274      2.287      3.614
REMARK INTER + INTRA:         -12.111
REMARK INTER:                 -10.907
REMARK INTRA:                  -1.203
REMARK UNBOUND:                -1.648
REMARK  Name = agan6
REMARK  8 active torsions:
REMARK  status: ('A' for Active; 'I' for Inactive)
REMARK    1  A    between atoms: C1_1  and  C16_22
REMARK    2  A    between atoms: C4_4  and  N2_15
REMARK    3  A    between atoms: C6_6  and  N1_7
REMARK    4  A    between atoms: N2_15  and  S1_16
REMARK    5  A    between atoms: S1_16  and  C14_17
REMARK    6  A    between atoms: C14_17  and  C15_18
REMARK    7  A    between atoms: C15_18  and  O1_19
REMARK    8  A    between atoms: C22_30  and  N4_31
REMARK                            x       y       z     vdW  Elec       q    Type
REMARK                         _______ _______ _______ _____ _____    ______ ____
ROOT
ATOM      1  C1  UNL A   1      -1.149  -0.968 -14.123  0.00  0.00    +0.028 A 
ATOM      2  C2  UNL A   1       0.042  -1.541 -13.632  0.00  0.00    +0.014 A 
ATOM      3  C3  UNL A   1       1.289  -1.061 -14.028  0.00  0.00    +0.025 A 
ATOM      4  C4  UNL A   1       1.359   0.001 -14.920  0.00  0.00    +0.050 A 
ATOM      5  C5  UNL A   1       0.191   0.562 -15.441  0.00  0.00    +0.048 A 
ATOM      6  C6  UNL A   1      -1.081   0.092 -15.063  0.00  0.00    +0.041 A 
ENDROOT
BRANCH   1   7
ATOM      7  C16 UNL A   1      -2.417  -1.523 -13.620  0.00  0.00    +0.111 A 
ATOM      8  S2  UNL A   1      -3.017  -1.078 -12.076  0.00  0.00    -0.065 S 
ATOM      9  C17 UNL A   1      -4.385  -2.117 -12.279  0.00  0.00    +0.060 A 
ATOM     10  C18 UNL A   1      -4.244  -2.770 -13.510  0.00  0.00    +0.081 A 
ATOM     11  N3  UNL A   1      -3.118  -2.442 -14.247  0.00  0.00    -0.239 NA
ATOM     12  C19 UNL A   1      -5.224  -3.696 -13.917  0.00  0.00    +0.029 A 
ATOM     13  C20 UNL A   1      -6.321  -3.952 -13.098  0.00  0.00    +0.004 A 
ATOM     14  C21 UNL A   1      -6.447  -3.292 -11.882  0.00  0.00    +0.024 A 
ATOM     15  C22 UNL A   1      -5.495  -2.355 -11.424  0.00  0.00    +0.046 A 
BRANCH  15  16
ATOM     16  N4  UNL A   1      -5.761  -1.760 -10.164  0.00  0.00    -0.329 N 
ATOM     17  C23 UNL A   1      -6.625  -2.586  -9.308  0.00  0.00    +0.111 C 
ATOM     18  C24 UNL A   1      -6.574  -2.025  -7.895  0.00  0.00    +0.094 C 
ATOM     19  C25 UNL A   1      -6.951  -0.558  -7.919  0.00  0.00    +0.252 C 
ATOM     20  C26 UNL A   1      -6.127   0.268  -8.886  0.00  0.00    +0.094 C 
ATOM     21  C27 UNL A   1      -6.187  -0.358 -10.271  0.00  0.00    +0.111 C 
ATOM     22  F1  UNL A   1      -8.268  -0.438  -8.239  0.00  0.00    -0.206 F 
ATOM     23  F2  UNL A   1      -6.822  -0.042  -6.669  0.00  0.00    -0.206 F 
ENDBRANCH  15  16
ENDBRANCH   1   7
BRANCH   6  24
ATOM     24  N1  UNL A   1      -2.248   0.615 -15.659  0.00  0.00    -0.329 N 
ATOM     25  C7  UNL A   1      -2.206   0.514 -17.137  0.00  0.00    +0.105 C 
ATOM     26  C8  UNL A   1      -3.384   1.266 -17.767  0.00  0.00    +0.026 C 
ATOM     27  C9  UNL A   1      -3.344   2.741 -17.403  0.00  0.00    -0.026 C 
ATOM     28  C10 UNL A   1      -2.682   3.039 -16.068  0.00  0.00    +0.026 C 
ATOM     29  C11 UNL A   1      -2.823   1.857 -15.104  0.00  0.00    +0.105 C 
ATOM     30  C12 UNL A   1      -3.170   3.759 -18.512  0.00  0.00    +0.007 C 
ATOM     31  C13 UNL A   1      -4.506   3.605 -17.850  0.00  0.00    +0.007 C 
ENDBRANCH   6  24
BRANCH   4  32
ATOM     32  N2  UNL A   1       2.628   0.474 -15.373  0.00  0.00    -0.221 N 
ATOM     33  H16 UNL A   1       2.628   0.833 -16.331  0.00  0.00    +0.173 HD
BRANCH  32  34
ATOM     34  S1  UNL A   1       3.429   1.595 -14.386  0.00  0.00    +0.045 S 
ATOM     35  O2  UNL A   1       2.553   2.710 -14.113  0.00  0.00    -0.155 OA
ATOM     36  O3  UNL A   1       4.715   1.802 -15.021  0.00  0.00    -0.155 OA
BRANCH  34  37
ATOM     37  C14 UNL A   1       3.703   0.680 -12.882  0.00  0.00    +0.216 C 
BRANCH  37  38
ATOM     38  C15 UNL A   1       4.988   1.087 -12.196  0.00  0.00    +0.180 C 
BRANCH  38  39
ATOM     39  O1  UNL A   1       4.781   1.086 -10.784  0.00  0.00    -0.393 OA
ATOM     40  H21 UNL A   1       5.652   0.964 -10.368  0.00  0.00    +0.209 HD
ENDBRANCH  38  39
ENDBRANCH  37  38
ENDBRANCH  34  37
ENDBRANCH  32  34
ENDBRANCH   4  32
TORSDOF 8
ENDMDL
MODEL 7
REMARK VINA RESULT:    -7.258      2.516      3.517
REMARK INTER + INTRA:         -12.089
REMARK INTER:                 -10.510
REMARK INTRA:                  -1.579
REMARK UNBOUND:                -1.648
REMARK  Name = agan6
REMARK  8 active torsions:
REMARK  status: ('A' for Active; 'I' for Inactive)
REMARK    1  A    between atoms: C1_1  and  C16_22
REMARK    2  A    between atoms: C4_4  and  N2_15
REMARK    3  A    between atoms: C6_6  and  N1_7
REMARK    4  A    between atoms: N2_15  and  S1_16
REMARK    5  A    between atoms: S1_16  and  C14_17
REMARK    6  A    between atoms: C14_17  and  C15_18
REMARK    7  A    between atoms: C15_18  and  O1_19
REMARK    8  A    between atoms: C22_30  and  N4_31
REMARK                            x       y       z     vdW  Elec       q    Type
REMARK                         _______ _______ _______ _____ _____    ______ ____
ROOT
ATOM      1  C1  UNL A   1      -2.057  -0.567 -14.350  0.00  0.00    +0.028 A 
ATOM      2  C2  UNL A   1      -0.920   0.004 -13.743  0.00  0.00    +0.014 A 
ATOM      3  C3  UNL A   1       0.335  -0.081 -14.341  0.00  0.00    +0.025 A 
ATOM      4  C4  UNL A   1       0.468  -0.737 -15.557  0.00  0.00    +0.050 A 
ATOM      5  C5  UNL A   1      -0.640  -1.335 -16.161  0.00  0.00    +0.048 A 
ATOM      6  C6  UNL A   1      -1.919  -1.270 -15.575  0.00  0.00    +0.041 A 
ENDROOT
BRANCH   1   7
ATOM      7  C16 UNL A   1      -3.345  -0.395 -13.658  0.00  0.00    +0.111 A 
ATOM      8  S2  UNL A   1      -3.531  -0.873 -12.021  0.00  0.00    -0.065 S 
ATOM      9  C17 UNL A   1      -5.191  -0.387 -12.040  0.00  0.00    +0.060 A 
ATOM     10  C18 UNL A   1      -5.488   0.062 -13.332  0.00  0.00    +0.081 A 
ATOM     11  N3  UNL A   1      -4.443   0.031 -14.242  0.00  0.00    -0.239 NA
ATOM     12  C19 UNL A   1      -6.792   0.505 -13.628  0.00  0.00    +0.029 A 
ATOM     13  C20 UNL A   1      -7.770   0.496 -12.636  0.00  0.00    +0.004 A 
ATOM     14  C21 UNL A   1      -7.456   0.052 -11.357  0.00  0.00    +0.024 A 
ATOM     15  C22 UNL A   1      -6.167  -0.403 -11.007  0.00  0.00    +0.046 A 
BRANCH  15  16
ATOM     16  N4  UNL A   1      -5.997  -0.823  -9.662  0.00  0.00    -0.329 N 
ATOM     17  C23 UNL A   1      -6.976  -1.838  -9.248  0.00  0.00    +0.111 C 
ATOM     18  C24 UNL A   1      -6.508  -2.444  -7.933  0.00  0.00    +0.094 C 
ATOM     19  C25 UNL A   1      -6.295  -1.343  -6.916  0.00  0.00    +0.252 C 
ATOM     20  C26 UNL A   1      -5.369  -0.243  -7.393  0.00  0.00    +0.094 C 
ATOM     21  C27 UNL A   1      -5.865   0.301  -8.724  0.00  0.00    +0.111 C 
ATOM     22  F1  UNL A   1      -7.498  -0.801  -6.582  0.00  0.00    -0.206 F 
ATOM     23  F2  UNL A   1      -5.797  -1.881  -5.772  0.00  0.00    -0.206 F 
ENDBRANCH  15  16
ENDBRANCH   1   7
BRANCH   6  24
ATOM     24  N1  UNL A   1      -3.011  -1.947 -16.155  0.00  0.00    -0.329 N 
ATOM     25  C7  UNL A   1      -2.776  -3.409 -16.236  0.00  0.00    +0.105 C 
ATOM     26  C8  UNL A   1      -3.882  -4.093 -17.048  0.00  0.00    +0.026 C 
ATOM     27  C9  UNL A   1      -3.927  -3.553 -18.467  0.00  0.00    -0.026 C 
ATOM     28  C10 UNL A   1      -3.451  -2.116 -18.607  0.00  0.00    +0.026 C 
ATOM     29  C11 UNL A   1      -3.685  -1.328 -17.314  0.00  0.00    +0.105 C 
ATOM     30  C12 UNL A   1      -3.637  -4.499 -19.615  0.00  0.00    +0.007 C 
ATOM     31  C13 UNL A   1      -5.043  -4.042 -19.369  0.00  0.00    +0.007 C 
ENDBRANCH   6  24
BRANCH   4  32
ATOM     32  N2  UNL A   1       1.756  -0.875 -16.161  0.00  0.00    -0.221 N 
ATOM     33  H16 UNL A   1       1.898  -1.758 -16.656  0.00  0.00    +0.173 HD
BRANCH  32  34
ATOM     34  S1  UNL A   1       2.274   0.388 -17.165  0.00  0.00    +0.045 S 
ATOM     35  O2  UNL A   1       2.499   1.574 -16.372  0.00  0.00    -0.155 OA
ATOM     36  O3  UNL A   1       1.333   0.403 -18.265  0.00  0.00    -0.155 OA
BRANCH  34  37
ATOM     37  C14 UNL A   1       3.834  -0.209 -17.786  0.00  0.00    +0.216 C 
BRANCH  37  38
ATOM     38  C15 UNL A   1       4.139   0.333 -19.165  0.00  0.00    +0.180 C 
BRANCH  38  39
ATOM     39  O1  UNL A   1       3.671   1.678 -19.250  0.00  0.00    -0.393 OA
ATOM     40  H21 UNL A   1       4.441   2.257 -19.112  0.00  0.00    +0.209 HD
ENDBRANCH  38  39
ENDBRANCH  37  38
ENDBRANCH  34  37
ENDBRANCH  32  34
ENDBRANCH   4  32
TORSDOF 8
ENDMDL
MODEL 8
REMARK VINA RESULT:    -7.237      2.413      3.562
REMARK INTER + INTRA:         -12.058
REMARK INTER:                 -10.655
REMARK INTRA:                  -1.403
REMARK UNBOUND:                -1.648
REMARK  Name = agan6
REMARK  8 active torsions:
REMARK  status: ('A' for Active; 'I' for Inactive)
REMARK    1  A    between atoms: C1_1  and  C16_22
REMARK    2  A    between atoms: C4_4  and  N2_15
REMARK    3  A    between atoms: C6_6  and  N1_7
REMARK    4  A    between atoms: N2_15  and  S1_16
REMARK    5  A    between atoms: S1_16  and  C14_17
REMARK    6  A    between atoms: C14_17  and  C15_18
REMARK    7  A    between atoms: C15_18  and  O1_19
REMARK    8  A    between atoms: C22_30  and  N4_31
REMARK                            x       y       z     vdW  Elec       q    Type
REMARK                         _______ _______ _______ _____ _____    ______ ____
ROOT
ATOM      1  C1  UNL A   1      -1.500  -0.576 -13.884  0.00  0.00    +0.028 A 
ATOM      2  C2  UNL A   1      -0.548  -0.531 -12.845  0.00  0.00    +0.014 A 
ATOM      3  C3  UNL A   1       0.810  -0.380 -13.117  0.00  0.00    +0.025 A 
ATOM      4  C4  UNL A   1       1.232  -0.269 -14.436  0.00  0.00    +0.050 A 
ATOM      5  C5  UNL A   1       0.309  -0.341 -15.480  0.00  0.00    +0.048 A 
ATOM      6  C6  UNL A   1      -1.068  -0.500 -15.234  0.00  0.00    +0.041 A 
ENDROOT
BRANCH   1   7
ATOM      7  C16 UNL A   1      -2.914  -0.704 -13.494  0.00  0.00    +0.111 A 
ATOM      8  S2  UNL A   1      -3.364  -0.781 -11.842  0.00  0.00    -0.065 S 
ATOM      9  C17 UNL A   1      -5.031  -0.940 -12.275  0.00  0.00    +0.060 A 
ATOM     10  C18 UNL A   1      -5.105  -0.974 -13.673  0.00  0.00    +0.081 A 
ATOM     11  N3  UNL A   1      -3.901  -0.862 -14.349  0.00  0.00    -0.239 NA
ATOM     12  C19 UNL A   1      -6.361  -1.117 -14.296  0.00  0.00    +0.029 A 
ATOM     13  C20 UNL A   1      -7.513  -1.221 -13.520  0.00  0.00    +0.004 A 
ATOM     14  C21 UNL A   1      -7.421  -1.180 -12.134  0.00  0.00    +0.024 A 
ATOM     15  C22 UNL A   1      -6.190  -1.039 -11.459  0.00  0.00    +0.046 A 
BRANCH  15  16
ATOM     16  N4  UNL A   1      -6.255  -1.011 -10.042  0.00  0.00    -0.329 N 
ATOM     17  C23 UNL A   1      -6.896  -2.206  -9.471  0.00  0.00    +0.111 C 
ATOM     18  C24 UNL A   1      -6.620  -2.226  -7.975  0.00  0.00    +0.094 C 
ATOM     19  C25 UNL A   1      -7.084  -0.924  -7.357  0.00  0.00    +0.252 C 
ATOM     20  C26 UNL A   1      -6.503   0.308  -8.022  0.00  0.00    +0.094 C 
ATOM     21  C27 UNL A   1      -6.778   0.258  -9.517  0.00  0.00    +0.111 C 
ATOM     22  F1  UNL A   1      -8.442  -0.861  -7.408  0.00  0.00    -0.206 F 
ATOM     23  F2  UNL A   1      -6.759  -0.913  -6.038  0.00  0.00    -0.206 F 
ENDBRANCH  15  16
ENDBRANCH   1   7
BRANCH   6  24
ATOM     24  N1  UNL A   1      -1.977  -0.651 -16.301  0.00  0.00    -0.329 N 
ATOM     25  C7  UNL A   1      -1.806  -1.951 -16.993  0.00  0.00    +0.105 C 
ATOM     26  C8  UNL A   1      -2.660  -2.006 -18.264  0.00  0.00    +0.026 C 
ATOM     27  C9  UNL A   1      -2.261  -0.909 -19.236  0.00  0.00    -0.026 C 
ATOM     28  C10 UNL A   1      -1.691   0.336 -18.576  0.00  0.00    +0.026 C 
ATOM     29  C11 UNL A   1      -2.250   0.517 -17.161  0.00  0.00    +0.105 C 
ATOM     30  C12 UNL A   1      -1.699  -1.303 -20.587  0.00  0.00    +0.007 C 
ATOM     31  C13 UNL A   1      -3.089  -0.751 -20.496  0.00  0.00    +0.007 C 
ENDBRANCH   6  24
BRANCH   4  32
ATOM     32  N2  UNL A   1       2.625  -0.161 -14.735  0.00  0.00    -0.221 N 
ATOM     33  H16 UNL A   1       2.954  -0.811 -15.453  0.00  0.00    +0.173 HD
BRANCH  32  34
ATOM     34  S1  UNL A   1       3.216   1.383 -15.105  0.00  0.00    +0.045 S 
ATOM     35  O2  UNL A   1       2.552   2.365 -14.278  0.00  0.00    -0.155 OA
ATOM     36  O3  UNL A   1       3.156   1.471 -16.549  0.00  0.00    -0.155 OA
BRANCH  34  37
ATOM     37  C14 UNL A   1       4.931   1.280 -14.634  0.00  0.00    +0.216 C 
BRANCH  37  38
ATOM     38  C15 UNL A   1       5.119   1.429 -13.141  0.00  0.00    +0.180 C 
BRANCH  38  39
ATOM     39  O1  UNL A   1       4.147   0.631 -12.468  0.00  0.00    -0.393 OA
ATOM     40  H21 UNL A   1       3.879  -0.073 -13.084  0.00  0.00    +0.209 HD
ENDBRANCH  38  39
ENDBRANCH  37  38
ENDBRANCH  34  37
ENDBRANCH  32  34
ENDBRANCH   4  32
TORSDOF 8
ENDMDL
MODEL 9
REMARK VINA RESULT:    -6.953      2.285      3.442
REMARK INTER + INTRA:         -11.650
REMARK INTER:                 -10.020
REMARK INTRA:                  -1.629
REMARK UNBOUND:                -1.648
REMARK  Name = agan6
REMARK  8 active torsions:
REMARK  status: ('A' for Active; 'I' for Inactive)
REMARK    1  A    between atoms: C1_1  and  C16_22
REMARK    2  A    between atoms: C4_4  and  N2_15
REMARK    3  A    between atoms: C6_6  and  N1_7
REMARK    4  A    between atoms: N2_15  and  S1_16
REMARK    5  A    between atoms: S1_16  and  C14_17
REMARK    6  A    between atoms: C14_17  and  C15_18
REMARK    7  A    between atoms: C15_18  and  O1_19
REMARK    8  A    between atoms: C22_30  and  N4_31
REMARK                            x       y       z     vdW  Elec       q    Type
REMARK                         _______ _______ _______ _____ _____    ______ ____
ROOT
ATOM      1  C1  UNL A   1      -1.411  -1.259 -14.195  0.00  0.00    +0.028 A 
ATOM      2  C2  UNL A   1      -0.234  -1.910 -13.774  0.00  0.00    +0.014 A 
ATOM      3  C3  UNL A   1       1.024  -1.424 -14.124  0.00  0.00    +0.025 A 
ATOM      4  C4  UNL A   1       1.120  -0.277 -14.900  0.00  0.00    +0.050 A 
ATOM      5  C5  UNL A   1      -0.034   0.366 -15.353  0.00  0.00    +0.048 A 
ATOM      6  C6  UNL A   1      -1.317  -0.108 -15.019  0.00  0.00    +0.041 A 
ENDROOT
BRANCH   1   7
ATOM      7  C16 UNL A   1      -2.691  -1.830 -13.745  0.00  0.00    +0.111 A 
ATOM      8  S2  UNL A   1      -3.305  -1.482 -12.182  0.00  0.00    -0.065 S 
ATOM      9  C17 UNL A   1      -4.683  -2.488 -12.471  0.00  0.00    +0.060 A 
ATOM     10  C18 UNL A   1      -4.534  -3.058 -13.741  0.00  0.00    +0.081 A 
ATOM     11  N3  UNL A   1      -3.395  -2.696 -14.441  0.00  0.00    -0.239 NA
ATOM     12  C19 UNL A   1      -5.520  -3.942 -14.221  0.00  0.00    +0.029 A 
ATOM     13  C20 UNL A   1      -6.630  -4.239 -13.435  0.00  0.00    +0.004 A 
ATOM     14  C21 UNL A   1      -6.764  -3.660 -12.178  0.00  0.00    +0.024 A 
ATOM     15  C22 UNL A   1      -5.807  -2.768 -11.648  0.00  0.00    +0.046 A 
BRANCH  15  16
ATOM     16  N4  UNL A   1      -6.081  -2.256 -10.354  0.00  0.00    -0.329 N 
ATOM     17  C23 UNL A   1      -6.903  -3.163  -9.537  0.00  0.00    +0.111 C 
ATOM     18  C24 UNL A   1      -6.858  -2.679  -8.096  0.00  0.00    +0.094 C 
ATOM     19  C25 UNL A   1      -7.293  -1.230  -8.034  0.00  0.00    +0.252 C 
ATOM     20  C26 UNL A   1      -6.513  -0.319  -8.960  0.00  0.00    +0.094 C 
ATOM     21  C27 UNL A   1      -6.564  -0.868 -10.377  0.00  0.00    +0.111 C 
ATOM     22  F1  UNL A   1      -8.617  -1.145  -8.334  0.00  0.00    -0.206 F 
ATOM     23  F2  UNL A   1      -7.170  -0.780  -6.758  0.00  0.00    -0.206 F 
ENDBRANCH  15  16
ENDBRANCH   1   7
BRANCH   6  24
ATOM     24  N1  UNL A   1      -2.471   0.505 -15.550  0.00  0.00    -0.329 N 
ATOM     25  C7  UNL A   1      -2.316   0.822 -16.990  0.00  0.00    +0.105 C 
ATOM     26  C8  UNL A   1      -3.495   1.663 -17.491  0.00  0.00    +0.026 C 
ATOM     27  C9  UNL A   1      -3.584   2.979 -16.736  0.00  0.00    -0.026 C 
ATOM     28  C10 UNL A   1      -3.042   2.924 -15.317  0.00  0.00    +0.026 C 
ATOM     29  C11 UNL A   1      -3.170   1.515 -14.730  0.00  0.00    +0.105 C 
ATOM     30  C12 UNL A   1      -3.402   4.272 -17.505  0.00  0.00    +0.007 C 
ATOM     31  C13 UNL A   1      -4.768   3.878 -17.031  0.00  0.00    +0.007 C 
ENDBRANCH   6  24
BRANCH   4  32
ATOM     32  N2  UNL A   1       2.400   0.208 -15.309  0.00  0.00    -0.221 N 
ATOM     33  H16 UNL A   1       2.405   0.671 -16.221  0.00  0.00    +0.173 HD
BRANCH  32  34
ATOM     34  S1  UNL A   1       3.238   1.189 -14.210  0.00  0.00    +0.045 S 
ATOM     35  O2  UNL A   1       3.505   0.442 -13.003  0.00  0.00    -0.155 OA
ATOM     36  O3  UNL A   1       2.486   2.426 -14.162  0.00  0.00    -0.155 OA
BRANCH  34  37
ATOM     37  C14 UNL A   1       4.774   1.514 -15.053  0.00  0.00    +0.216 C 
BRANCH  37  38
ATOM     38  C15 UNL A   1       5.972   1.100 -14.229  0.00  0.00    +0.180 C 
BRANCH  38  39
ATOM     39  O1  UNL A   1       6.129   2.016 -13.146  0.00  0.00    -0.393 OA
ATOM     40  H21 UNL A   1       5.358   1.903 -12.562  0.00  0.00    +0.209 HD
ENDBRANCH  38  39
ENDBRANCH  37  38
ENDBRANCH  34  37
ENDBRANCH  32  34
ENDBRANCH   4  32
TORSDOF 8
ENDMDL
