MODEL 1
REMARK VINA RESULT:    -7.147      0.000      0.000
REMARK INTER + INTRA:         -11.497
REMARK INTER:                  -9.862
REMARK INTRA:                  -1.634
REMARK UNBOUND:                -1.634
REMARK  Name = agan8
REMARK  7 active torsions:
REMARK  status: ('A' for Active; 'I' for Inactive)
REMARK    1  A    between atoms: C1_1  and  C16_22
REMARK    2  A    between atoms: C4_4  and  N2_15
REMARK    3  A    between atoms: C6_6  and  N1_7
REMARK    4  A    between atoms: N2_15  and  S1_16
REMARK    5  A    between atoms: S1_16  and  C14_17
REMARK    6  A    between atoms: C14_17  and  C15_18
REMARK    7  A    between atoms: C15_18  and  O1_19
REMARK                            x       y       z     vdW  Elec       q    Type
REMARK                         _______ _______ _______ _____ _____    ______ ____
ROOT
ATOM      1  C1  UNL A   1      -1.519  -1.077 -13.305  0.00  0.00    +0.003 A 
ATOM      2  C2  UNL A   1      -0.378  -0.613 -12.612  0.00  0.00    +0.012 A 
ATOM      3  C3  UNL A   1       0.835  -0.401 -13.263  0.00  0.00    +0.025 A 
ATOM      4  C4  UNL A   1       0.929  -0.645 -14.626  0.00  0.00    +0.050 A 
ATOM      5  C5  UNL A   1      -0.188  -1.095 -15.333  0.00  0.00    +0.048 A 
ATOM      6  C6  UNL A   1      -1.425  -1.342 -14.702  0.00  0.00    +0.039 A 
ENDROOT
BRANCH   1   7
ATOM      7  C16 UNL A   1      -2.780  -1.190 -12.543  0.00  0.00    -0.011 A 
ATOM      8  C17 UNL A   1      -3.466  -2.409 -12.449  0.00  0.00    +0.052 A 
ATOM      9  C18 UNL A   1      -4.652  -2.503 -11.716  0.00  0.00    +0.122 A 
ATOM     10  N3  UNL A   1      -5.152  -1.432 -11.065  0.00  0.00    -0.240 NA
ATOM     11  C19 UNL A   1      -4.486  -0.260 -11.157  0.00  0.00    +0.113 A 
ATOM     12  C20 UNL A   1      -3.316  -0.091 -11.872  0.00  0.00    +0.028 A 
ATOM     13  N4  UNL A   1      -5.316  -3.752 -11.643  0.00  0.00    -0.315 N 
ATOM     14  C21 UNL A   1      -5.884  -4.128 -12.949  0.00  0.00    +0.112 C 
ATOM     15  C22 UNL A   1      -6.408  -5.552 -12.869  0.00  0.00    +0.094 C 
ATOM     16  C23 UNL A   1      -7.391  -5.674 -11.725  0.00  0.00    +0.252 C 
ATOM     17  C24 UNL A   1      -6.833  -5.203 -10.402  0.00  0.00    +0.094 C 
ATOM     18  C25 UNL A   1      -6.304  -3.785 -10.549  0.00  0.00    +0.112 C 
ATOM     19  F1  UNL A   1      -7.784  -6.970 -11.611  0.00  0.00    -0.206 F 
ATOM     20  F2  UNL A   1      -8.514  -4.968 -12.022  0.00  0.00    -0.206 F 
ENDBRANCH   1   7
BRANCH   6  21
ATOM     21  N1  UNL A   1      -2.515  -1.836 -15.436  0.00  0.00    -0.329 N 
ATOM     22  C7  UNL A   1      -2.325  -3.150 -16.092  0.00  0.00    +0.105 C 
ATOM     23  C8  UNL A   1      -2.828  -3.146 -17.541  0.00  0.00    +0.026 C 
ATOM     24  C9  UNL A   1      -4.279  -2.709 -17.624  0.00  0.00    -0.026 C 
ATOM     25  C10 UNL A   1      -4.669  -1.644 -16.611  0.00  0.00    +0.026 C 
ATOM     26  C11 UNL A   1      -3.434  -0.895 -16.098  0.00  0.00    +0.105 C 
ATOM     27  C12 UNL A   1      -4.928  -2.681 -18.993  0.00  0.00    +0.007 C 
ATOM     28  C13 UNL A   1      -5.329  -3.734 -18.005  0.00  0.00    +0.007 C 
ENDBRANCH   6  21
BRANCH   4  29
ATOM     29  N2  UNL A   1       2.178  -0.437 -15.274  0.00  0.00    -0.221 N 
ATOM     30  H16 UNL A   1       2.640  -1.251 -15.678  0.00  0.00    +0.173 HD
BRANCH  29  31
ATOM     31  S1  UNL A   1       2.471   0.972 -16.146  0.00  0.00    +0.045 S 
ATOM     32  O2  UNL A   1       3.792   1.396 -15.729  0.00  0.00    -0.155 OA
ATOM     33  O3  UNL A   1       1.341   1.867 -16.036  0.00  0.00    -0.155 OA
BRANCH  31  34
ATOM     34  C14 UNL A   1       2.614   0.391 -17.828  0.00  0.00    +0.216 C 
BRANCH  34  35
ATOM     35  C15 UNL A   1       4.053   0.217 -18.260  0.00  0.00    +0.180 C 
BRANCH  35  36
ATOM     36  O1  UNL A   1       4.719  -0.618 -17.315  0.00  0.00    -0.393 OA
ATOM     37  H21 UNL A   1       5.674  -0.536 -17.486  0.00  0.00    +0.209 HD
ENDBRANCH  35  36
ENDBRANCH  34  35
ENDBRANCH  31  34
ENDBRANCH  29  31
ENDBRANCH   4  29
TORSDOF 7
ENDMDL
MODEL 2
REMARK VINA RESULT:    -6.973      2.825      4.133
REMARK INTER + INTRA:         -11.258
REMARK INTER:                 -10.068
REMARK INTRA:                  -1.190
REMARK UNBOUND:                -1.634
REMARK  Name = agan8
REMARK  7 active torsions:
REMARK  status: ('A' for Active; 'I' for Inactive)
REMARK    1  A    between atoms: C1_1  and  C16_22
REMARK    2  A    between atoms: C4_4  and  N2_15
REMARK    3  A    between atoms: C6_6  and  N1_7
REMARK    4  A    between atoms: N2_15  and  S1_16
REMARK    5  A    between atoms: S1_16  and  C14_17
REMARK    6  A    between atoms: C14_17  and  C15_18
REMARK    7  A    between atoms: C15_18  and  O1_19
REMARK                            x       y       z     vdW  Elec       q    Type
REMARK                         _______ _______ _______ _____ _____    ______ ____
ROOT
ATOM      1  C1  UNL A   1      -0.744  -1.109 -15.445  0.00  0.00    +0.003 A 
ATOM      2  C2  UNL A   1       0.475  -1.772 -15.174  0.00  0.00    +0.012 A 
ATOM      3  C3  UNL A   1       1.668  -1.070 -15.020  0.00  0.00    +0.025 A 
ATOM      4  C4  UNL A   1       1.665   0.313 -15.130  0.00  0.00    +0.050 A 
ATOM      5  C5  UNL A   1       0.472   0.990 -15.390  0.00  0.00    +0.048 A 
ATOM      6  C6  UNL A   1      -0.751   0.311 -15.573  0.00  0.00    +0.039 A 
ENDROOT
BRANCH   1   7
ATOM      7  C16 UNL A   1      -1.969  -1.932 -15.507  0.00  0.00    -0.011 A 
ATOM      8  C17 UNL A   1      -2.857  -2.000 -14.423  0.00  0.00    +0.052 A 
ATOM      9  C18 UNL A   1      -4.016  -2.775 -14.501  0.00  0.00    +0.122 A 
ATOM     10  N3  UNL A   1      -4.321  -3.457 -15.625  0.00  0.00    -0.240 NA
ATOM     11  C19 UNL A   1      -3.464  -3.387 -16.667  0.00  0.00    +0.113 A 
ATOM     12  C20 UNL A   1      -2.295  -2.651 -16.657  0.00  0.00    +0.028 A 
ATOM     13  N4  UNL A   1      -4.889  -2.817 -13.386  0.00  0.00    -0.315 N 
ATOM     14  C21 UNL A   1      -4.272  -3.534 -12.257  0.00  0.00    +0.112 C 
ATOM     15  C22 UNL A   1      -5.157  -3.382 -11.031  0.00  0.00    +0.094 C 
ATOM     16  C23 UNL A   1      -6.561  -3.850 -11.350  0.00  0.00    +0.252 C 
ATOM     17  C24 UNL A   1      -7.157  -3.176 -12.565  0.00  0.00    +0.094 C 
ATOM     18  C25 UNL A   1      -6.218  -3.341 -13.749  0.00  0.00    +0.112 C 
ATOM     19  F1  UNL A   1      -7.361  -3.627 -10.275  0.00  0.00    -0.206 F 
ATOM     20  F2  UNL A   1      -6.552  -5.197 -11.536  0.00  0.00    -0.206 F 
ENDBRANCH   1   7
BRANCH   6  21
ATOM     21  N1  UNL A   1      -1.924   1.021 -15.875  0.00  0.00    -0.329 N 
ATOM     22  C7  UNL A   1      -1.925   1.777 -17.147  0.00  0.00    +0.105 C 
ATOM     23  C8  UNL A   1      -2.486   3.194 -16.973  0.00  0.00    +0.026 C 
ATOM     24  C9  UNL A   1      -3.874   3.171 -16.359  0.00  0.00    -0.026 C 
ATOM     25  C10 UNL A   1      -4.086   2.066 -15.337  0.00  0.00    +0.026 C 
ATOM     26  C11 UNL A   1      -2.748   1.565 -14.782  0.00  0.00    +0.105 C 
ATOM     27  C12 UNL A   1      -4.572   4.499 -16.149  0.00  0.00    +0.007 C 
ATOM     28  C13 UNL A   1      -5.058   3.569 -17.219  0.00  0.00    +0.007 C 
ENDBRANCH   6  21
BRANCH   4  29
ATOM     29  N2  UNL A   1       2.895   1.013 -14.985  0.00  0.00    -0.221 N 
ATOM     30  H16 UNL A   1       3.155   1.666 -15.724  0.00  0.00    +0.173 HD
BRANCH  29  31
ATOM     31  S1  UNL A   1       3.428   1.508 -13.468  0.00  0.00    +0.045 S 
ATOM     32  O2  UNL A   1       2.920   0.506 -12.553  0.00  0.00    -0.155 OA
ATOM     33  O3  UNL A   1       3.127   2.909 -13.269  0.00  0.00    -0.155 OA
BRANCH  31  34
ATOM     34  C14 UNL A   1       5.197   1.283 -13.561  0.00  0.00    +0.216 C 
BRANCH  34  35
ATOM     35  C15 UNL A   1       5.861   1.349 -12.204  0.00  0.00    +0.180 C 
BRANCH  35  36
ATOM     36  O1  UNL A   1       4.858   1.241 -11.195  0.00  0.00    -0.393 OA
ATOM     37  H21 UNL A   1       4.882   2.068 -10.681  0.00  0.00    +0.209 HD
ENDBRANCH  35  36
ENDBRANCH  34  35
ENDBRANCH  31  34
ENDBRANCH  29  31
ENDBRANCH   4  29
TORSDOF 7
ENDMDL
MODEL 3
REMARK VINA RESULT:    -6.952      1.109      1.501
REMARK INTER + INTRA:         -11.228
REMARK INTER:                  -9.801
REMARK INTRA:                  -1.427
REMARK UNBOUND:                -1.634
REMARK  Name = agan8
REMARK  7 active torsions:
REMARK  status: ('A' for Active; 'I' for Inactive)
REMARK    1  A    between atoms: C1_1  and  C16_22
REMARK    2  A    between atoms: C4_4  and  N2_15
REMARK    3  A    between atoms: C6_6  and  N1_7
REMARK    4  A    between atoms: N2_15  and  S1_16
REMARK    5  A    between atoms: S1_16  and  C14_17
REMARK    6  A    between atoms: C14_17  and  C15_18
REMARK    7  A    between atoms: C15_18  and  O1_19
REMARK                            x       y       z     vdW  Elec       q    Type
REMARK                         _______ _______ _______ _____ _____    ______ ____
ROOT
ATOM      1  C1  UNL A   1      -1.543  -1.023 -13.273  0.00  0.00    +0.003 A 
ATOM      2  C2  UNL A   1      -0.420  -0.631 -12.510  0.00  0.00    +0.012 A 
ATOM      3  C3  UNL A   1       0.820  -0.401 -13.103  0.00  0.00    +0.025 A 
ATOM      4  C4  UNL A   1       0.959  -0.555 -14.475  0.00  0.00    +0.050 A 
ATOM      5  C5  UNL A   1      -0.139  -0.933 -15.250  0.00  0.00    +0.048 A 
ATOM      6  C6  UNL A   1      -1.403  -1.196 -14.681  0.00  0.00    +0.039 A 
ENDROOT
BRANCH   1   7
ATOM      7  C16 UNL A   1      -2.833  -1.160 -12.566  0.00  0.00    -0.011 A 
ATOM      8  C17 UNL A   1      -3.488  -2.397 -12.480  0.00  0.00    +0.052 A 
ATOM      9  C18 UNL A   1      -4.702  -2.513 -11.799  0.00  0.00    +0.122 A 
ATOM     10  N3  UNL A   1      -5.260  -1.447 -11.190  0.00  0.00    -0.240 NA
ATOM     11  C19 UNL A   1      -4.625  -0.258 -11.273  0.00  0.00    +0.113 A 
ATOM     12  C20 UNL A   1      -3.430  -0.067 -11.938  0.00  0.00    +0.028 A 
ATOM     13  N4  UNL A   1      -5.333  -3.780 -11.733  0.00  0.00    -0.315 N 
ATOM     14  C21 UNL A   1      -5.831  -4.194 -13.056  0.00  0.00    +0.112 C 
ATOM     15  C22 UNL A   1      -6.318  -5.631 -12.974  0.00  0.00    +0.094 C 
ATOM     16  C23 UNL A   1      -7.347  -5.763 -11.872  0.00  0.00    +0.252 C 
ATOM     17  C24 UNL A   1      -6.861  -5.254 -10.534  0.00  0.00    +0.094 C 
ATOM     18  C25 UNL A   1      -6.367  -3.824 -10.683  0.00  0.00    +0.112 C 
ATOM     19  F1  UNL A   1      -7.707  -7.068 -11.753  0.00  0.00    -0.206 F 
ATOM     20  F2  UNL A   1      -8.475  -5.095 -12.230  0.00  0.00    -0.206 F 
ENDBRANCH   1   7
BRANCH   6  21
ATOM     21  N1  UNL A   1      -2.475  -1.616 -15.485  0.00  0.00    -0.329 N 
ATOM     22  C7  UNL A   1      -2.368  -2.975 -16.064  0.00  0.00    +0.105 C 
ATOM     23  C8  UNL A   1      -2.748  -2.997 -17.550  0.00  0.00    +0.026 C 
ATOM     24  C9  UNL A   1      -4.134  -2.422 -17.778  0.00  0.00    -0.026 C 
ATOM     25  C10 UNL A   1      -4.493  -1.273 -16.850  0.00  0.00    +0.026 C 
ATOM     26  C11 UNL A   1      -3.234  -0.624 -16.264  0.00  0.00    +0.105 C 
ATOM     27  C12 UNL A   1      -4.662  -2.402 -19.198  0.00  0.00    +0.007 C 
ATOM     28  C13 UNL A   1      -5.250  -3.356 -18.203  0.00  0.00    +0.007 C 
ENDBRANCH   6  21
BRANCH   4  29
ATOM     29  N2  UNL A   1       2.235  -0.330 -15.063  0.00  0.00    -0.221 N 
ATOM     30  H16 UNL A   1       2.647  -1.094 -15.599  0.00  0.00    +0.173 HD
BRANCH  29  31
ATOM     31  S1  UNL A   1       2.647   1.183 -15.672  0.00  0.00    +0.045 S 
ATOM     32  O2  UNL A   1       1.384   1.784 -16.051  0.00  0.00    -0.155 OA
ATOM     33  O3  UNL A   1       3.720   1.056 -16.632  0.00  0.00    -0.155 OA
BRANCH  31  34
ATOM     34  C14 UNL A   1       3.232   2.061 -14.232  0.00  0.00    +0.216 C 
BRANCH  34  35
ATOM     35  C15 UNL A   1       4.455   1.417 -13.619  0.00  0.00    +0.180 C 
BRANCH  35  36
ATOM     36  O1  UNL A   1       4.049   0.624 -12.505  0.00  0.00    -0.393 OA
ATOM     37  H21 UNL A   1       3.295   0.084 -12.800  0.00  0.00    +0.209 HD
ENDBRANCH  35  36
ENDBRANCH  34  35
ENDBRANCH  31  34
ENDBRANCH  29  31
ENDBRANCH   4  29
TORSDOF 7
ENDMDL
MODEL 4
REMARK VINA RESULT:    -6.883      1.844      2.527
REMARK INTER + INTRA:         -11.132
REMARK INTER:                  -9.887
REMARK INTRA:                  -1.245
REMARK UNBOUND:                -1.634
REMARK  Name = agan8
REMARK  7 active torsions:
REMARK  status: ('A' for Active; 'I' for Inactive)
REMARK    1  A    between atoms: C1_1  and  C16_22
REMARK    2  A    between atoms: C4_4  and  N2_15
REMARK    3  A    between atoms: C6_6  and  N1_7
REMARK    4  A    between atoms: N2_15  and  S1_16
REMARK    5  A    between atoms: S1_16  and  C14_17
REMARK    6  A    between atoms: C14_17  and  C15_18
REMARK    7  A    between atoms: C15_18  and  O1_19
REMARK                            x       y       z     vdW  Elec       q    Type
REMARK                         _______ _______ _______ _____ _____    ______ ____
ROOT
ATOM      1  C1  UNL A   1      -1.387  -0.934 -13.753  0.00  0.00    +0.003 A 
ATOM      2  C2  UNL A   1      -0.137  -1.468 -13.364  0.00  0.00    +0.012 A 
ATOM      3  C3  UNL A   1       0.975  -1.403 -14.200  0.00  0.00    +0.025 A 
ATOM      4  C4  UNL A   1       0.860  -0.798 -15.444  0.00  0.00    +0.050 A 
ATOM      5  C5  UNL A   1      -0.363  -0.257 -15.846  0.00  0.00    +0.048 A 
ATOM      6  C6  UNL A   1      -1.515  -0.323 -15.034  0.00  0.00    +0.039 A 
ENDROOT
BRANCH   1   7
ATOM      7  C16 UNL A   1      -2.483  -0.975 -12.763  0.00  0.00    -0.011 A 
ATOM      8  C17 UNL A   1      -3.367  -2.062 -12.702  0.00  0.00    +0.052 A 
ATOM      9  C18 UNL A   1      -4.393  -2.091 -11.753  0.00  0.00    +0.122 A 
ATOM     10  N3  UNL A   1      -4.543  -1.089 -10.863  0.00  0.00    -0.240 NA
ATOM     11  C19 UNL A   1      -3.688  -0.045 -10.924  0.00  0.00    +0.113 A 
ATOM     12  C20 UNL A   1      -2.659   0.057 -11.841  0.00  0.00    +0.028 A 
ATOM     13  N4  UNL A   1      -5.265  -3.207 -11.721  0.00  0.00    -0.315 N 
ATOM     14  C21 UNL A   1      -6.126  -3.241 -12.916  0.00  0.00    +0.112 C 
ATOM     15  C22 UNL A   1      -6.897  -4.551 -12.932  0.00  0.00    +0.094 C 
ATOM     16  C23 UNL A   1      -7.657  -4.716 -11.634  0.00  0.00    +0.252 C 
ATOM     17  C24 UNL A   1      -6.783  -4.590 -10.407  0.00  0.00    +0.094 C 
ATOM     18  C25 UNL A   1      -6.021  -3.275 -10.458  0.00  0.00    +0.112 C 
ATOM     19  F1  UNL A   1      -8.270  -5.929 -11.627  0.00  0.00    -0.206 F 
ATOM     20  F2  UNL A   1      -8.654  -3.793 -11.578  0.00  0.00    -0.206 F 
ENDBRANCH   1   7
BRANCH   6  21
ATOM     21  N1  UNL A   1      -2.738   0.194 -15.489  0.00  0.00    -0.329 N 
ATOM     22  C7  UNL A   1      -3.313  -0.442 -16.695  0.00  0.00    +0.105 C 
ATOM     23  C8  UNL A   1      -3.816   0.595 -17.707  0.00  0.00    +0.026 C 
ATOM     24  C9  UNL A   1      -4.813   1.550 -17.076  0.00  0.00    -0.026 C 
ATOM     25  C10 UNL A   1      -4.520   1.887 -15.623  0.00  0.00    +0.026 C 
ATOM     26  C11 UNL A   1      -3.050   1.618 -15.281  0.00  0.00    +0.105 C 
ATOM     27  C12 UNL A   1      -5.421   2.618 -17.961  0.00  0.00    +0.007 C 
ATOM     28  C13 UNL A   1      -6.266   1.471 -17.499  0.00  0.00    +0.007 C 
ENDBRANCH   6  21
BRANCH   4  29
ATOM     29  N2  UNL A   1       2.002  -0.754 -16.291  0.00  0.00    -0.221 N 
ATOM     30  H16 UNL A   1       1.969  -1.299 -17.153  0.00  0.00    +0.173 HD
BRANCH  29  31
ATOM     31  S1  UNL A   1       2.897   0.660 -16.454  0.00  0.00    +0.045 S 
ATOM     32  O2  UNL A   1       2.552   1.166 -17.767  0.00  0.00    -0.155 OA
ATOM     33  O3  UNL A   1       4.278   0.417 -16.098  0.00  0.00    -0.155 OA
BRANCH  31  34
ATOM     34  C14 UNL A   1       2.154   1.758 -15.258  0.00  0.00    +0.216 C 
BRANCH  34  35
ATOM     35  C15 UNL A   1       3.052   2.010 -14.068  0.00  0.00    +0.180 C 
BRANCH  35  36
ATOM     36  O1  UNL A   1       2.577   3.159 -13.368  0.00  0.00    -0.393 OA
ATOM     37  H21 UNL A   1       1.716   2.920 -12.981  0.00  0.00    +0.209 HD
ENDBRANCH  35  36
ENDBRANCH  34  35
ENDBRANCH  31  34
ENDBRANCH  29  31
ENDBRANCH   4  29
TORSDOF 7
ENDMDL
MODEL 5
REMARK VINA RESULT:    -6.822      1.465      1.879
REMARK INTER + INTRA:         -11.049
REMARK INTER:                  -9.169
REMARK INTRA:                  -1.881
REMARK UNBOUND:                -1.634
REMARK  Name = agan8
REMARK  7 active torsions:
REMARK  status: ('A' for Active; 'I' for Inactive)
REMARK    1  A    between atoms: C1_1  and  C16_22
REMARK    2  A    between atoms: C4_4  and  N2_15
REMARK    3  A    between atoms: C6_6  and  N1_7
REMARK    4  A    between atoms: N2_15  and  S1_16
REMARK    5  A    between atoms: S1_16  and  C14_17
REMARK    6  A    between atoms: C14_17  and  C15_18
REMARK    7  A    between atoms: C15_18  and  O1_19
REMARK                            x       y       z     vdW  Elec       q    Type
REMARK                         _______ _______ _______ _____ _____    ______ ____
ROOT
ATOM      1  C1  UNL A   1      -1.553  -0.943 -13.534  0.00  0.00    +0.003 A 
ATOM      2  C2  UNL A   1      -0.287  -1.338 -13.047  0.00  0.00    +0.012 A 
ATOM      3  C3  UNL A   1       0.866  -1.198 -13.816  0.00  0.00    +0.025 A 
ATOM      4  C4  UNL A   1       0.776  -0.655 -15.090  0.00  0.00    +0.050 A 
ATOM      5  C5  UNL A   1      -0.464  -0.251 -15.589  0.00  0.00    +0.048 A 
ATOM      6  C6  UNL A   1      -1.655  -0.397 -14.847  0.00  0.00    +0.039 A 
ENDROOT
BRANCH   1   7
ATOM      7  C16 UNL A   1      -2.703  -1.052 -12.613  0.00  0.00    -0.011 A 
ATOM      8  C17 UNL A   1      -3.482  -2.216 -12.556  0.00  0.00    +0.052 A 
ATOM      9  C18 UNL A   1      -4.560  -2.308 -11.672  0.00  0.00    +0.122 A 
ATOM     10  N3  UNL A   1      -4.862  -1.292 -10.838  0.00  0.00    -0.240 NA
ATOM     11  C19 UNL A   1      -4.107  -0.173 -10.894  0.00  0.00    +0.113 A 
ATOM     12  C20 UNL A   1      -3.035  -0.007 -11.750  0.00  0.00    +0.028 A 
ATOM     13  N4  UNL A   1      -5.323  -3.502 -11.643  0.00  0.00    -0.315 N 
ATOM     14  C21 UNL A   1      -6.098  -3.666 -12.886  0.00  0.00    +0.112 C 
ATOM     15  C22 UNL A   1      -6.739  -5.043 -12.890  0.00  0.00    +0.094 C 
ATOM     16  C23 UNL A   1      -7.563  -5.231 -11.635  0.00  0.00    +0.252 C 
ATOM     17  C24 UNL A   1      -6.786  -4.974 -10.364  0.00  0.00    +0.094 C 
ATOM     18  C25 UNL A   1      -6.150  -3.594 -10.427  0.00  0.00    +0.112 C 
ATOM     19  F1  UNL A   1      -8.057  -6.496 -11.611  0.00  0.00    -0.206 F 
ATOM     20  F2  UNL A   1      -8.644  -4.408 -11.681  0.00  0.00    -0.206 F 
ENDBRANCH   1   7
BRANCH   6  21
ATOM     21  N1  UNL A   1      -2.890  -0.019 -15.398  0.00  0.00    -0.329 N 
ATOM     22  C7  UNL A   1      -3.310  -0.735 -16.623  0.00  0.00    +0.105 C 
ATOM     23  C8  UNL A   1      -3.843   0.224 -17.695  0.00  0.00    +0.026 C 
ATOM     24  C9  UNL A   1      -4.974   1.083 -17.159  0.00  0.00    -0.026 C 
ATOM     25  C10 UNL A   1      -4.820   1.478 -15.699  0.00  0.00    +0.026 C 
ATOM     26  C11 UNL A   1      -3.358   1.370 -15.251  0.00  0.00    +0.105 C 
ATOM     27  C12 UNL A   1      -5.624   2.065 -18.112  0.00  0.00    +0.007 C 
ATOM     28  C13 UNL A   1      -6.379   0.846 -17.678  0.00  0.00    +0.007 C 
ENDBRANCH   6  21
BRANCH   4  29
ATOM     29  N2  UNL A   1       1.961  -0.534 -15.867  0.00  0.00    -0.221 N 
ATOM     30  H16 UNL A   1       1.953  -0.940 -16.803  0.00  0.00    +0.173 HD
BRANCH  29  31
ATOM     31  S1  UNL A   1       2.915   0.848 -15.770  0.00  0.00    +0.045 S 
ATOM     32  O2  UNL A   1       3.740   0.645 -14.596  0.00  0.00    -0.155 OA
ATOM     33  O3  UNL A   1       2.091   2.030 -15.896  0.00  0.00    -0.155 OA
BRANCH  31  34
ATOM     34  C14 UNL A   1       3.985   0.710 -17.192  0.00  0.00    +0.216 C 
BRANCH  34  35
ATOM     35  C15 UNL A   1       3.275   0.136 -18.397  0.00  0.00    +0.180 C 
BRANCH  35  36
ATOM     36  O1  UNL A   1       1.987   0.739 -18.504  0.00  0.00    -0.393 OA
ATOM     37  H21 UNL A   1       1.955   1.459 -17.849  0.00  0.00    +0.209 HD
ENDBRANCH  35  36
ENDBRANCH  34  35
ENDBRANCH  31  34
ENDBRANCH  29  31
ENDBRANCH   4  29
TORSDOF 7
ENDMDL
MODEL 6
REMARK VINA RESULT:    -6.790      1.101      1.195
REMARK INTER + INTRA:         -11.005
REMARK INTER:                  -9.146
REMARK INTRA:                  -1.859
REMARK UNBOUND:                -1.634
REMARK  Name = agan8
REMARK  7 active torsions:
REMARK  status: ('A' for Active; 'I' for Inactive)
REMARK    1  A    between atoms: C1_1  and  C16_22
REMARK    2  A    between atoms: C4_4  and  N2_15
REMARK    3  A    between atoms: C6_6  and  N1_7
REMARK    4  A    between atoms: N2_15  and  S1_16
REMARK    5  A    between atoms: S1_16  and  C14_17
REMARK    6  A    between atoms: C14_17  and  C15_18
REMARK    7  A    between atoms: C15_18  and  O1_19
REMARK                            x       y       z     vdW  Elec       q    Type
REMARK                         _______ _______ _______ _____ _____    ______ ____
ROOT
ATOM      1  C1  UNL A   1      -1.488  -0.990 -13.479  0.00  0.00    +0.003 A 
ATOM      2  C2  UNL A   1      -0.426  -0.813 -12.562  0.00  0.00    +0.012 A 
ATOM      3  C3  UNL A   1       0.882  -0.605 -12.992  0.00  0.00    +0.025 A 
ATOM      4  C4  UNL A   1       1.155  -0.566 -14.352  0.00  0.00    +0.050 A 
ATOM      5  C5  UNL A   1       0.121  -0.731 -15.276  0.00  0.00    +0.048 A 
ATOM      6  C6  UNL A   1      -1.211  -0.965 -14.877  0.00  0.00    +0.039 A 
ENDROOT
BRANCH   1   7
ATOM      7  C16 UNL A   1      -2.852  -1.119 -12.926  0.00  0.00    -0.011 A 
ATOM      8  C17 UNL A   1      -3.446  -2.376 -12.742  0.00  0.00    +0.052 A 
ATOM      9  C18 UNL A   1      -4.733  -2.482 -12.209  0.00  0.00    +0.122 A 
ATOM     10  N3  UNL A   1      -5.423  -1.384 -11.838  0.00  0.00    -0.240 NA
ATOM     11  C19 UNL A   1      -4.846  -0.176 -12.014  0.00  0.00    +0.113 A 
ATOM     12  C20 UNL A   1      -3.584   0.006 -12.546  0.00  0.00    +0.028 A 
ATOM     13  N4  UNL A   1      -5.300  -3.769 -12.037  0.00  0.00    -0.315 N 
ATOM     14  C21 UNL A   1      -5.594  -4.396 -13.337  0.00  0.00    +0.112 C 
ATOM     15  C22 UNL A   1      -6.011  -5.840 -13.107  0.00  0.00    +0.094 C 
ATOM     16  C23 UNL A   1      -7.170  -5.890 -12.135  0.00  0.00    +0.252 C 
ATOM     17  C24 UNL A   1      -6.896  -5.167 -10.836  0.00  0.00    +0.094 C 
ATOM     18  C25 UNL A   1      -6.462  -3.740 -11.131  0.00  0.00    +0.112 C 
ATOM     19  F1  UNL A   1      -7.475  -7.188 -11.871  0.00  0.00    -0.206 F 
ATOM     20  F2  UNL A   1      -8.274  -5.360 -12.726  0.00  0.00    -0.206 F 
ENDBRANCH   1   7
BRANCH   6  21
ATOM     21  N1  UNL A   1      -2.218  -1.168 -15.834  0.00  0.00    -0.329 N 
ATOM     22  C7  UNL A   1      -2.490  -2.573 -16.213  0.00  0.00    +0.105 C 
ATOM     23  C8  UNL A   1      -2.611  -2.745 -17.733  0.00  0.00    +0.026 C 
ATOM     24  C9  UNL A   1      -3.662  -1.817 -18.314  0.00  0.00    -0.026 C 
ATOM     25  C10 UNL A   1      -3.752  -0.465 -17.626  0.00  0.00    +0.026 C 
ATOM     26  C11 UNL A   1      -2.458  -0.147 -16.868  0.00  0.00    +0.105 C 
ATOM     27  C12 UNL A   1      -3.916  -1.891 -19.806  0.00  0.00    +0.007 C 
ATOM     28  C13 UNL A   1      -4.946  -2.417 -18.853  0.00  0.00    +0.007 C 
ENDBRANCH   6  21
BRANCH   4  29
ATOM     29  N2  UNL A   1       2.499  -0.367 -14.775  0.00  0.00    -0.221 N 
ATOM     30  H16 UNL A   1       2.780  -0.786 -15.661  0.00  0.00    +0.173 HD
BRANCH  29  31
ATOM     31  S1  UNL A   1       3.292   1.083 -14.465  0.00  0.00    +0.045 S 
ATOM     32  O2  UNL A   1       3.992   0.861 -13.215  0.00  0.00    -0.155 OA
ATOM     33  O3  UNL A   1       2.374   2.191 -14.609  0.00  0.00    -0.155 OA
BRANCH  31  34
ATOM     34  C14 UNL A   1       4.528   1.158 -15.750  0.00  0.00    +0.216 C 
BRANCH  34  35
ATOM     35  C15 UNL A   1       4.029   0.606 -17.067  0.00  0.00    +0.180 C 
BRANCH  35  36
ATOM     36  O1  UNL A   1       2.724   1.125 -17.319  0.00  0.00    -0.393 OA
ATOM     37  H21 UNL A   1       2.738   1.508 -18.213  0.00  0.00    +0.209 HD
ENDBRANCH  35  36
ENDBRANCH  34  35
ENDBRANCH  31  34
ENDBRANCH  29  31
ENDBRANCH   4  29
TORSDOF 7
ENDMDL
MODEL 7
REMARK VINA RESULT:    -6.742      1.318      2.012
REMARK INTER + INTRA:         -10.939
REMARK INTER:                  -9.619
REMARK INTRA:                  -1.320
REMARK UNBOUND:                -1.634
REMARK  Name = agan8
REMARK  7 active torsions:
REMARK  status: ('A' for Active; 'I' for Inactive)
REMARK    1  A    between atoms: C1_1  and  C16_22
REMARK    2  A    between atoms: C4_4  and  N2_15
REMARK    3  A    between atoms: C6_6  and  N1_7
REMARK    4  A    between atoms: N2_15  and  S1_16
REMARK    5  A    between atoms: S1_16  and  C14_17
REMARK    6  A    between atoms: C14_17  and  C15_18
REMARK    7  A    between atoms: C15_18  and  O1_19
REMARK                            x       y       z     vdW  Elec       q    Type
REMARK                         _______ _______ _______ _____ _____    ______ ____
ROOT
ATOM      1  C1  UNL A   1      -1.333  -0.957 -13.935  0.00  0.00    +0.003 A 
ATOM      2  C2  UNL A   1      -0.345  -0.514 -13.027  0.00  0.00    +0.012 A 
ATOM      3  C3  UNL A   1       0.983  -0.355 -13.414  0.00  0.00    +0.025 A 
ATOM      4  C4  UNL A   1       1.349  -0.632 -14.724  0.00  0.00    +0.050 A 
ATOM      5  C5  UNL A   1       0.389  -1.063 -15.641  0.00  0.00    +0.048 A 
ATOM      6  C6  UNL A   1      -0.960  -1.257 -15.278  0.00  0.00    +0.039 A 
ENDROOT
BRANCH   1   7
ATOM      7  C16 UNL A   1      -2.728  -1.014 -13.452  0.00  0.00    -0.011 A 
ATOM      8  C17 UNL A   1      -3.307  -2.223 -13.041  0.00  0.00    +0.052 A 
ATOM      9  C18 UNL A   1      -4.625  -2.259 -12.576  0.00  0.00    +0.122 A 
ATOM     10  N3  UNL A   1      -5.361  -1.132 -12.491  0.00  0.00    -0.240 NA
ATOM     11  C19 UNL A   1      -4.798   0.031 -12.885  0.00  0.00    +0.113 A 
ATOM     12  C20 UNL A   1      -3.507   0.140 -13.365  0.00  0.00    +0.028 A 
ATOM     13  N4  UNL A   1      -5.175  -3.500 -12.170  0.00  0.00    -0.315 N 
ATOM     14  C21 UNL A   1      -5.368  -4.397 -13.322  0.00  0.00    +0.112 C 
ATOM     15  C22 UNL A   1      -5.769  -5.773 -12.815  0.00  0.00    +0.094 C 
ATOM     16  C23 UNL A   1      -6.989  -5.657 -11.927  0.00  0.00    +0.252 C 
ATOM     17  C24 UNL A   1      -6.818  -4.667 -10.798  0.00  0.00    +0.094 C 
ATOM     18  C25 UNL A   1      -6.395  -3.320 -11.362  0.00  0.00    +0.112 C 
ATOM     19  F1  UNL A   1      -7.284  -6.879 -11.412  0.00  0.00    -0.206 F 
ATOM     20  F2  UNL A   1      -8.062  -5.302 -12.683  0.00  0.00    -0.206 F 
ENDBRANCH   1   7
BRANCH   6  21
ATOM     21  N1  UNL A   1      -1.890  -1.733 -16.216  0.00  0.00    -0.329 N 
ATOM     22  C7  UNL A   1      -2.849  -0.742 -16.753  0.00  0.00    +0.105 C 
ATOM     23  C8  UNL A   1      -4.284  -1.283 -16.773  0.00  0.00    +0.026 C 
ATOM     24  C9  UNL A   1      -4.375  -2.589 -17.540  0.00  0.00    -0.026 C 
ATOM     25  C10 UNL A   1      -3.155  -3.485 -17.394  0.00  0.00    +0.026 C 
ATOM     26  C11 UNL A   1      -2.358  -3.127 -16.134  0.00  0.00    +0.105 C 
ATOM     27  C12 UNL A   1      -5.739  -3.235 -17.671  0.00  0.00    +0.007 C 
ATOM     28  C13 UNL A   1      -5.101  -2.604 -18.871  0.00  0.00    +0.007 C 
ENDBRANCH   6  21
BRANCH   4  29
ATOM     29  N2  UNL A   1       2.713  -0.477 -15.099  0.00  0.00    -0.221 N 
ATOM     30  H16 UNL A   1       3.168  -1.268 -15.555  0.00  0.00    +0.173 HD
BRANCH  29  31
ATOM     31  S1  UNL A   1       3.292   1.004 -15.646  0.00  0.00    +0.045 S 
ATOM     32  O2  UNL A   1       2.117   1.848 -15.737  0.00  0.00    -0.155 OA
ATOM     33  O3  UNL A   1       4.150   0.809 -16.793  0.00  0.00    -0.155 OA
BRANCH  31  34
ATOM     34  C14 UNL A   1       4.259   1.601 -14.269  0.00  0.00    +0.216 C 
BRANCH  34  35
ATOM     35  C15 UNL A   1       3.400   2.044 -13.107  0.00  0.00    +0.180 C 
BRANCH  35  36
ATOM     36  O1  UNL A   1       2.843   3.323 -13.406  0.00  0.00    -0.393 OA
ATOM     37  H21 UNL A   1       1.901   3.287 -13.161  0.00  0.00    +0.209 HD
ENDBRANCH  35  36
ENDBRANCH  34  35
ENDBRANCH  31  34
ENDBRANCH  29  31
ENDBRANCH   4  29
TORSDOF 7
ENDMDL
MODEL 8
REMARK VINA RESULT:    -6.734      5.605      8.788
REMARK INTER + INTRA:         -10.927
REMARK INTER:                  -9.253
REMARK INTRA:                  -1.674
REMARK UNBOUND:                -1.634
REMARK  Name = agan8
REMARK  7 active torsions:
REMARK  status: ('A' for Active; 'I' for Inactive)
REMARK    1  A    between atoms: C1_1  and  C16_22
REMARK    2  A    between atoms: C4_4  and  N2_15
REMARK    3  A    between atoms: C6_6  and  N1_7
REMARK    4  A    between atoms: N2_15  and  S1_16
REMARK    5  A    between atoms: S1_16  and  C14_17
REMARK    6  A    between atoms: C14_17  and  C15_18
REMARK    7  A    between atoms: C15_18  and  O1_19
REMARK                            x       y       z     vdW  Elec       q    Type
REMARK                         _______ _______ _______ _____ _____    ______ ____
ROOT
ATOM      1  C1  UNL A   1      -3.151  -2.507 -15.878  0.00  0.00    +0.003 A 
ATOM      2  C2  UNL A   1      -3.069  -3.409 -16.963  0.00  0.00    +0.012 A 
ATOM      3  C3  UNL A   1      -3.756  -4.620 -16.958  0.00  0.00    +0.025 A 
ATOM      4  C4  UNL A   1      -4.545  -4.953 -15.866  0.00  0.00    +0.050 A 
ATOM      5  C5  UNL A   1      -4.648  -4.074 -14.786  0.00  0.00    +0.048 A 
ATOM      6  C6  UNL A   1      -3.949  -2.849 -14.747  0.00  0.00    +0.039 A 
ENDROOT
BRANCH   1   7
ATOM      7  C16 UNL A   1      -2.454  -1.211 -16.014  0.00  0.00    -0.011 A 
ATOM      8  C17 UNL A   1      -1.109  -1.067 -15.646  0.00  0.00    +0.052 A 
ATOM      9  C18 UNL A   1      -0.460   0.162 -15.790  0.00  0.00    +0.122 A 
ATOM     10  N3  UNL A   1      -1.103   1.230 -16.306  0.00  0.00    -0.240 NA
ATOM     11  C19 UNL A   1      -2.398   1.085 -16.662  0.00  0.00    +0.113 A 
ATOM     12  C20 UNL A   1      -3.106  -0.095 -16.537  0.00  0.00    +0.028 A 
ATOM     13  N4  UNL A   1       0.900   0.269 -15.408  0.00  0.00    -0.315 N 
ATOM     14  C21 UNL A   1       1.050   0.158 -13.946  0.00  0.00    +0.112 C 
ATOM     15  C22 UNL A   1       2.529   0.080 -13.606  0.00  0.00    +0.094 C 
ATOM     16  C23 UNL A   1       3.257   1.266 -14.201  0.00  0.00    +0.252 C 
ATOM     17  C24 UNL A   1       3.027   1.427 -15.686  0.00  0.00    +0.094 C 
ATOM     18  C25 UNL A   1       1.534   1.476 -15.967  0.00  0.00    +0.112 C 
ATOM     19  F1  UNL A   1       4.589   1.137 -13.964  0.00  0.00    -0.206 F 
ATOM     20  F2  UNL A   1       2.871   2.398 -13.556  0.00  0.00    -0.206 F 
ENDBRANCH   1   7
BRANCH   6  21
ATOM     21  N1  UNL A   1      -4.041  -2.009 -13.626  0.00  0.00    -0.329 N 
ATOM     22  C7  UNL A   1      -3.693  -2.615 -12.321  0.00  0.00    +0.105 C 
ATOM     23  C8  UNL A   1      -4.715  -2.261 -11.233  0.00  0.00    +0.026 C 
ATOM     24  C9  UNL A   1      -4.889  -0.759 -11.100  0.00  0.00    -0.026 C 
ATOM     25  C10 UNL A   1      -4.783  -0.000 -12.413  0.00  0.00    +0.026 C 
ATOM     26  C11 UNL A   1      -5.040  -0.927 -13.606  0.00  0.00    +0.105 C 
ATOM     27  C12 UNL A   1      -5.849  -0.253 -10.043  0.00  0.00    +0.007 C 
ATOM     28  C13 UNL A   1      -4.374  -0.074  -9.849  0.00  0.00    +0.007 C 
ENDBRANCH   6  21
BRANCH   4  29
ATOM     29  N2  UNL A   1      -5.229  -6.200 -15.870  0.00  0.00    -0.221 N 
ATOM     30  H16 UNL A   1      -6.017  -6.302 -16.510  0.00  0.00    +0.173 HD
BRANCH  29  31
ATOM     31  S1  UNL A   1      -4.391  -7.641 -15.642  0.00  0.00    +0.045 S 
ATOM     32  O2  UNL A   1      -5.303  -8.483 -14.893  0.00  0.00    -0.155 OA
ATOM     33  O3  UNL A   1      -3.062  -7.368 -15.143  0.00  0.00    -0.155 OA
BRANCH  31  34
ATOM     34  C14 UNL A   1      -4.285  -8.320 -17.289  0.00  0.00    +0.216 C 
BRANCH  34  35
ATOM     35  C15 UNL A   1      -3.168  -9.330 -17.428  0.00  0.00    +0.180 C 
BRANCH  35  36
ATOM     36  O1  UNL A   1      -2.997 -10.002 -16.181  0.00  0.00    -0.393 OA
ATOM     37  H21 UNL A   1      -2.481  -9.409 -15.607  0.00  0.00    +0.209 HD
ENDBRANCH  35  36
ENDBRANCH  34  35
ENDBRANCH  31  34
ENDBRANCH  29  31
ENDBRANCH   4  29
TORSDOF 7
ENDMDL
MODEL 9
REMARK VINA RESULT:    -6.702      5.705      8.811
REMARK INTER + INTRA:         -10.883
REMARK INTER:                  -9.297
REMARK INTRA:                  -1.586
REMARK UNBOUND:                -1.634
REMARK  Name = agan8
REMARK  7 active torsions:
REMARK  status: ('A' for Active; 'I' for Inactive)
REMARK    1  A    between atoms: C1_1  and  C16_22
REMARK    2  A    between atoms: C4_4  and  N2_15
REMARK    3  A    between atoms: C6_6  and  N1_7
REMARK    4  A    between atoms: N2_15  and  S1_16
REMARK    5  A    between atoms: S1_16  and  C14_17
REMARK    6  A    between atoms: C14_17  and  C15_18
REMARK    7  A    between atoms: C15_18  and  O1_19
REMARK                            x       y       z     vdW  Elec       q    Type
REMARK                         _______ _______ _______ _____ _____    ______ ____
ROOT
ATOM      1  C1  UNL A   1      -3.551  -1.583 -13.885  0.00  0.00    +0.003 A 
ATOM      2  C2  UNL A   1      -3.738  -1.573 -12.484  0.00  0.00    +0.012 A 
ATOM      3  C3  UNL A   1      -4.422  -2.596 -11.832  0.00  0.00    +0.025 A 
ATOM      4  C4  UNL A   1      -4.930  -3.656 -12.570  0.00  0.00    +0.050 A 
ATOM      5  C5  UNL A   1      -4.750  -3.691 -13.954  0.00  0.00    +0.048 A 
ATOM      6  C6  UNL A   1      -4.082  -2.662 -14.650  0.00  0.00    +0.039 A 
ENDROOT
BRANCH   1   7
ATOM      7  C16 UNL A   1      -2.740  -0.497 -14.472  0.00  0.00    -0.011 A 
ATOM      8  C17 UNL A   1      -1.339  -0.516 -14.404  0.00  0.00    +0.052 A 
ATOM      9  C18 UNL A   1      -0.586   0.514 -14.973  0.00  0.00    +0.122 A 
ATOM     10  N3  UNL A   1      -1.184   1.535 -15.621  0.00  0.00    -0.240 NA
ATOM     11  C19 UNL A   1      -2.533   1.548 -15.686  0.00  0.00    +0.113 A 
ATOM     12  C20 UNL A   1      -3.342   0.571 -15.137  0.00  0.00    +0.028 A 
ATOM     13  N4  UNL A   1       0.827   0.459 -14.885  0.00  0.00    -0.315 N 
ATOM     14  C21 UNL A   1       1.279   0.655 -13.496  0.00  0.00    +0.112 C 
ATOM     15  C22 UNL A   1       2.774   0.393 -13.421  0.00  0.00    +0.094 C 
ATOM     16  C23 UNL A   1       3.500   1.265 -14.422  0.00  0.00    +0.252 C 
ATOM     17  C24 UNL A   1       2.972   1.127 -15.832  0.00  0.00    +0.094 C 
ATOM     18  C25 UNL A   1       1.472   1.377 -15.840  0.00  0.00    +0.112 C 
ATOM     19  F1  UNL A   1       4.823   0.958 -14.405  0.00  0.00    -0.206 F 
ATOM     20  F2  UNL A   1       3.413   2.564 -14.030  0.00  0.00    -0.206 F 
ENDBRANCH   1   7
BRANCH   6  21
ATOM     21  N1  UNL A   1      -3.958  -2.710 -16.048  0.00  0.00    -0.329 N 
ATOM     22  C7  UNL A   1      -5.220  -2.765 -16.819  0.00  0.00    +0.105 C 
ATOM     23  C8  UNL A   1      -5.167  -3.821 -17.931  0.00  0.00    +0.026 C 
ATOM     24  C9  UNL A   1      -3.983  -3.597 -18.853  0.00  0.00    -0.026 C 
ATOM     25  C10 UNL A   1      -2.740  -3.069 -18.156  0.00  0.00    +0.026 C 
ATOM     26  C11 UNL A   1      -2.785  -3.364 -16.653  0.00  0.00    +0.105 C 
ATOM     27  C12 UNL A   1      -3.812  -4.547 -20.021  0.00  0.00    +0.007 C 
ATOM     28  C13 UNL A   1      -4.242  -3.134 -20.274  0.00  0.00    +0.007 C 
ENDBRANCH   6  21
BRANCH   4  29
ATOM     29  N2  UNL A   1      -5.638  -4.685 -11.890  0.00  0.00    -0.221 N 
ATOM     30  H16 UNL A   1      -5.088  -5.412 -11.433  0.00  0.00    +0.173 HD
BRANCH  29  31
ATOM     31  S1  UNL A   1      -7.071  -4.350 -11.075  0.00  0.00    +0.045 S 
ATOM     32  O2  UNL A   1      -7.807  -5.598 -11.095  0.00  0.00    -0.155 OA
ATOM     33  O3  UNL A   1      -7.663  -3.136 -11.592  0.00  0.00    -0.155 OA
BRANCH  31  34
ATOM     34  C14 UNL A   1      -6.534  -4.085  -9.393  0.00  0.00    +0.216 C 
BRANCH  34  35
ATOM     35  C15 UNL A   1      -7.577  -3.379  -8.557  0.00  0.00    +0.180 C 
BRANCH  35  36
ATOM     36  O1  UNL A   1      -8.873  -3.774  -9.006  0.00  0.00    -0.393 OA
ATOM     37  H21 UNL A   1      -9.345  -4.131  -8.233  0.00  0.00    +0.209 HD
ENDBRANCH  35  36
ENDBRANCH  34  35
ENDBRANCH  31  34
ENDBRANCH  29  31
ENDBRANCH   4  29
TORSDOF 7
ENDMDL
