MODEL 1
REMARK VINA RESULT:    -7.897      0.000      0.000
REMARK INTER + INTRA:         -12.895
REMARK INTER:                 -11.360
REMARK INTRA:                  -1.535
REMARK UNBOUND:                -1.535
REMARK  Name = agan7
REMARK  9 active torsions:
REMARK  status: ('A' for Active; 'I' for Inactive)
REMARK    1  A    between atoms: C1_1  and  C17_22
REMARK    2  A    between atoms: C4_4  and  N1_15
REMARK    3  A    between atoms: C6_6  and  C7_7
REMARK    4  A    between atoms: N1_15  and  S1_16
REMARK    5  A    between atoms: S1_16  and  C15_17
REMARK    6  A    between atoms: C15_17  and  C16_18
REMARK    7  A    between atoms: C16_18  and  O1_19
REMARK    8  A    between atoms: N2_23  and  C18_24
REMARK    9  A    between atoms: C20_26  and  C27_38
REMARK                            x       y       z     vdW  Elec       q    Type
REMARK                         _______ _______ _______ _____ _____    ______ ____
ROOT
ATOM      1  C1  UNL A   1      -1.053  -1.157 -13.602  0.00  0.00    +0.041 A 
ATOM      2  C2  UNL A   1       0.117  -0.733 -12.949  0.00  0.00    +0.015 A 
ATOM      3  C3  UNL A   1       1.289  -0.514 -13.669  0.00  0.00    +0.025 A 
ATOM      4  C4  UNL A   1       1.307  -0.732 -15.042  0.00  0.00    +0.048 A 
ATOM      5  C5  UNL A   1       0.141  -1.147 -15.696  0.00  0.00    +0.029 A 
ATOM      6  C6  UNL A   1      -1.068  -1.365 -14.996  0.00  0.00    -0.030 A 
ENDROOT
BRANCH   6   7
ATOM      7  C7  UNL A   1      -2.268  -1.819 -15.821  0.00  0.00    +0.020 C 
ATOM      8  C8  UNL A   1      -2.379  -1.058 -17.155  0.00  0.00    +0.009 C 
ATOM      9  C9  UNL A   1      -3.666  -1.427 -17.897  0.00  0.00    +0.007 C 
ATOM     10  C10 UNL A   1      -3.783  -2.927 -18.057  0.00  0.00    -0.029 C 
ATOM     11  C11 UNL A   1      -3.695  -3.687 -16.753  0.00  0.00    +0.007 C 
ATOM     12  C12 UNL A   1      -2.394  -3.341 -16.027  0.00  0.00    +0.009 C 
ATOM     13  C13 UNL A   1      -4.696  -3.461 -19.136  0.00  0.00    +0.007 C 
ATOM     14  C14 UNL A   1      -3.205  -3.566 -19.301  0.00  0.00    +0.007 C 
ENDBRANCH   6   7
BRANCH   1  15
ATOM     15  C17 UNL A   1      -2.231  -1.374 -12.734  0.00  0.00    +0.250 C 
ATOM     16  N2  UNL A   1      -2.662  -0.228 -12.111  0.00  0.00    -0.266 N 
ATOM     17  O4  UNL A   1      -2.697  -2.499 -12.630  0.00  0.00    -0.270 OA
ATOM     18  H23 UNL A   1      -2.183   0.644 -12.290  0.00  0.00    +0.157 HD
BRANCH  16  19
ATOM     19  C18 UNL A   1      -3.756  -0.074 -11.255  0.00  0.00    +0.131 A 
ATOM     20  C19 UNL A   1      -3.645   0.118  -9.901  0.00  0.00    +0.067 A 
ATOM     21  C20 UNL A   1      -4.830   0.237  -9.215  0.00  0.00    +0.045 A 
ATOM     22  N3  UNL A   1      -6.028   0.170  -9.829  0.00  0.00    -0.220 NA
ATOM     23  C21 UNL A   1      -6.060  -0.014 -11.157  0.00  0.00    +0.220 A 
ATOM     24  N4  UNL A   1      -4.940  -0.140 -11.886  0.00  0.00    -0.199 NA
ATOM     25  N5  UNL A   1      -7.305  -0.113 -11.802  0.00  0.00    -0.299 N 
ATOM     26  C22 UNL A   1      -8.405   0.470 -11.026  0.00  0.00    +0.114 C 
ATOM     27  C23 UNL A   1      -9.735   0.127 -11.673  0.00  0.00    +0.094 C 
ATOM     28  C24 UNL A   1      -9.718   0.524 -13.130  0.00  0.00    +0.252 C 
ATOM     29  C25 UNL A   1      -8.570  -0.092 -13.894  0.00  0.00    +0.094 C 
ATOM     30  C26 UNL A   1      -7.253   0.256 -13.219  0.00  0.00    +0.114 C 
ATOM     31  F1  UNL A   1     -10.890   0.155 -13.710  0.00  0.00    -0.206 F 
ATOM     32  F2  UNL A   1      -9.658   1.877 -13.233  0.00  0.00    -0.206 F 
ATOM     33  C27 UNL A   1      -4.827   0.443  -7.731  0.00  0.00    +0.066 C 
ENDBRANCH  16  19
ENDBRANCH   1  15
BRANCH   4  34
ATOM     34  N1  UNL A   1       2.501  -0.528 -15.800  0.00  0.00    -0.221 N 
ATOM     35  H17 UNL A   1       3.334  -0.979 -15.405  0.00  0.00    +0.173 HD
BRANCH  34  36
ATOM     36  S1  UNL A   1       2.897   1.059 -16.257  0.00  0.00    +0.045 S 
ATOM     37  O2  UNL A   1       3.184   1.027 -17.677  0.00  0.00    -0.155 OA
ATOM     38  O3  UNL A   1       1.923   1.988 -15.725  0.00  0.00    -0.155 OA
BRANCH  36  39
ATOM     39  C15 UNL A   1       4.442   1.317 -15.397  0.00  0.00    +0.216 C 
BRANCH  39  40
ATOM     40  C16 UNL A   1       4.246   1.415 -13.897  0.00  0.00    +0.180 C 
BRANCH  40  41
ATOM     41  O1  UNL A   1       3.584   2.631 -13.549  0.00  0.00    -0.393 OA
ATOM     42  H22 UNL A   1       2.666   2.547 -13.873  0.00  0.00    +0.209 HD
ENDBRANCH  40  41
ENDBRANCH  39  40
ENDBRANCH  36  39
ENDBRANCH  34  36
ENDBRANCH   4  34
TORSDOF 8
ENDMDL
MODEL 2
REMARK VINA RESULT:    -7.789      2.492      2.827
REMARK INTER + INTRA:         -12.739
REMARK INTER:                 -11.083
REMARK INTRA:                  -1.656
REMARK UNBOUND:                -1.535
REMARK  Name = agan7
REMARK  9 active torsions:
REMARK  status: ('A' for Active; 'I' for Inactive)
REMARK    1  A    between atoms: C1_1  and  C17_22
REMARK    2  A    between atoms: C4_4  and  N1_15
REMARK    3  A    between atoms: C6_6  and  C7_7
REMARK    4  A    between atoms: N1_15  and  S1_16
REMARK    5  A    between atoms: S1_16  and  C15_17
REMARK    6  A    between atoms: C15_17  and  C16_18
REMARK    7  A    between atoms: C16_18  and  O1_19
REMARK    8  A    between atoms: N2_23  and  C18_24
REMARK    9  A    between atoms: C20_26  and  C27_38
REMARK                            x       y       z     vdW  Elec       q    Type
REMARK                         _______ _______ _______ _____ _____    ______ ____
ROOT
ATOM      1  C1  UNL A   1      -1.653  -0.264 -13.668  0.00  0.00    +0.041 A 
ATOM      2  C2  UNL A   1      -0.597   0.393 -13.013  0.00  0.00    +0.015 A 
ATOM      3  C3  UNL A   1       0.698   0.331 -13.523  0.00  0.00    +0.025 A 
ATOM      4  C4  UNL A   1       0.951  -0.397 -14.679  0.00  0.00    +0.048 A 
ATOM      5  C5  UNL A   1      -0.101  -1.046 -15.337  0.00  0.00    +0.029 A 
ATOM      6  C6  UNL A   1      -1.429  -0.991 -14.853  0.00  0.00    -0.030 A 
ENDROOT
BRANCH   6   7
ATOM      7  C7  UNL A   1      -2.484  -1.742 -15.658  0.00  0.00    +0.020 C 
ATOM      8  C8  UNL A   1      -2.914  -0.969 -16.919  0.00  0.00    +0.009 C 
ATOM      9  C9  UNL A   1      -4.073  -1.671 -17.631  0.00  0.00    +0.007 C 
ATOM     10  C10 UNL A   1      -3.736  -3.119 -17.908  0.00  0.00    -0.029 C 
ATOM     11  C11 UNL A   1      -3.331  -3.897 -16.675  0.00  0.00    +0.007 C 
ATOM     12  C12 UNL A   1      -2.152  -3.211 -15.983  0.00  0.00    +0.009 C 
ATOM     13  C13 UNL A   1      -4.513  -3.841 -18.985  0.00  0.00    +0.007 C 
ATOM     14  C14 UNL A   1      -3.076  -3.466 -19.224  0.00  0.00    +0.007 C 
ENDBRANCH   6   7
BRANCH   1  15
ATOM     15  C17 UNL A   1      -2.981  -0.143 -13.026  0.00  0.00    +0.250 C 
ATOM     16  N2  UNL A   1      -3.060  -0.795 -11.819  0.00  0.00    -0.266 N 
ATOM     17  O4  UNL A   1      -3.865   0.480 -13.596  0.00  0.00    -0.270 OA
ATOM     18  H23 UNL A   1      -2.245  -1.273 -11.460  0.00  0.00    +0.157 HD
BRANCH  16  19
ATOM     19  C18 UNL A   1      -4.148  -0.856 -10.945  0.00  0.00    +0.131 A 
ATOM     20  C19 UNL A   1      -4.380   0.059  -9.948  0.00  0.00    +0.067 A 
ATOM     21  C20 UNL A   1      -5.493  -0.167  -9.176  0.00  0.00    +0.045 A 
ATOM     22  N3  UNL A   1      -6.310  -1.219  -9.380  0.00  0.00    -0.220 NA
ATOM     23  C21 UNL A   1      -6.025  -2.070 -10.378  0.00  0.00    +0.220 A 
ATOM     24  N4  UNL A   1      -4.952  -1.909 -11.167  0.00  0.00    -0.199 NA
ATOM     25  N5  UNL A   1      -6.857  -3.186 -10.581  0.00  0.00    -0.299 N 
ATOM     26  C22 UNL A   1      -8.190  -3.026  -9.992  0.00  0.00    +0.114 C 
ATOM     27  C23 UNL A   1      -8.944  -4.344 -10.052  0.00  0.00    +0.094 C 
ATOM     28  C24 UNL A   1      -8.944  -4.875 -11.466  0.00  0.00    +0.252 C 
ATOM     29  C25 UNL A   1      -7.553  -5.020 -12.039  0.00  0.00    +0.094 C 
ATOM     30  C26 UNL A   1      -6.817  -3.693 -11.955  0.00  0.00    +0.114 C 
ATOM     31  F1  UNL A   1      -9.567  -6.081 -11.493  0.00  0.00    -0.206 F 
ATOM     32  F2  UNL A   1      -9.679  -4.054 -12.261  0.00  0.00    -0.206 F 
ATOM     33  C27 UNL A   1      -5.838   0.765  -8.054  0.00  0.00    +0.066 C 
ENDBRANCH  16  19
ENDBRANCH   1  15
BRANCH   4  34
ATOM     34  N1  UNL A   1       2.273  -0.488 -15.213  0.00  0.00    -0.221 N 
ATOM     35  H17 UNL A   1       2.972  -0.843 -14.551  0.00  0.00    +0.173 HD
BRANCH  34  36
ATOM     36  S1  UNL A   1       2.908   0.871 -16.009  0.00  0.00    +0.045 S 
ATOM     37  O2  UNL A   1       1.818   1.470 -16.751  0.00  0.00    -0.155 OA
ATOM     38  O3  UNL A   1       3.693   1.666 -15.089  0.00  0.00    -0.155 OA
BRANCH  36  39
ATOM     39  C15 UNL A   1       4.021   0.123 -17.190  0.00  0.00    +0.216 C 
BRANCH  39  40
ATOM     40  C16 UNL A   1       3.431   0.098 -18.586  0.00  0.00    +0.180 C 
BRANCH  40  41
ATOM     41  O1  UNL A   1       3.517   1.384 -19.198  0.00  0.00    -0.393 OA
ATOM     42  H22 UNL A   1       2.772   1.908 -18.845  0.00  0.00    +0.209 HD
ENDBRANCH  40  41
ENDBRANCH  39  40
ENDBRANCH  36  39
ENDBRANCH  34  36
ENDBRANCH   4  34
TORSDOF 8
ENDMDL
MODEL 3
REMARK VINA RESULT:    -7.747      4.919      9.421
REMARK INTER + INTRA:         -12.679
REMARK INTER:                 -11.737
REMARK INTRA:                  -0.942
REMARK UNBOUND:                -1.535
REMARK  Name = agan7
REMARK  9 active torsions:
REMARK  status: ('A' for Active; 'I' for Inactive)
REMARK    1  A    between atoms: C1_1  and  C17_22
REMARK    2  A    between atoms: C4_4  and  N1_15
REMARK    3  A    between atoms: C6_6  and  C7_7
REMARK    4  A    between atoms: N1_15  and  S1_16
REMARK    5  A    between atoms: S1_16  and  C15_17
REMARK    6  A    between atoms: C15_17  and  C16_18
REMARK    7  A    between atoms: C16_18  and  O1_19
REMARK    8  A    between atoms: N2_23  and  C18_24
REMARK    9  A    between atoms: C20_26  and  C27_38
REMARK                            x       y       z     vdW  Elec       q    Type
REMARK                         _______ _______ _______ _____ _____    ______ ____
ROOT
ATOM      1  C1  UNL A   1      -3.997  -1.572 -12.304  0.00  0.00    +0.041 A 
ATOM      2  C2  UNL A   1      -4.159  -0.545 -11.358  0.00  0.00    +0.015 A 
ATOM      3  C3  UNL A   1      -5.315  -0.473 -10.584  0.00  0.00    +0.025 A 
ATOM      4  C4  UNL A   1      -6.323  -1.414 -10.760  0.00  0.00    +0.048 A 
ATOM      5  C5  UNL A   1      -6.161  -2.442 -11.695  0.00  0.00    +0.029 A 
ATOM      6  C6  UNL A   1      -4.994  -2.551 -12.486  0.00  0.00    -0.030 A 
ENDROOT
BRANCH   6   7
ATOM      7  C7  UNL A   1      -4.938  -3.714 -13.472  0.00  0.00    +0.020 C 
ATOM      8  C8  UNL A   1      -5.538  -5.005 -12.885  0.00  0.00    +0.009 C 
ATOM      9  C9  UNL A   1      -5.341  -6.189 -13.835  0.00  0.00    +0.007 C 
ATOM     10  C10 UNL A   1      -5.867  -5.864 -15.215  0.00  0.00    -0.029 C 
ATOM     11  C11 UNL A   1      -5.272  -4.609 -15.813  0.00  0.00    +0.007 C 
ATOM     12  C12 UNL A   1      -5.498  -3.420 -14.877  0.00  0.00    +0.009 C 
ATOM     13  C13 UNL A   1      -6.198  -7.011 -16.142  0.00  0.00    +0.007 C 
ATOM     14  C14 UNL A   1      -7.308  -6.198 -15.534  0.00  0.00    +0.007 C 
ENDBRANCH   6   7
BRANCH   1  15
ATOM     15  C17 UNL A   1      -2.737  -1.539 -13.079  0.00  0.00    +0.250 C 
ATOM     16  N2  UNL A   1      -2.836  -0.813 -14.242  0.00  0.00    -0.266 N 
ATOM     17  O4  UNL A   1      -1.761  -2.140 -12.657  0.00  0.00    -0.270 OA
ATOM     18  H23 UNL A   1      -3.711  -0.360 -14.470  0.00  0.00    +0.157 HD
BRANCH  16  19
ATOM     19  C18 UNL A   1      -1.835  -0.556 -15.183  0.00  0.00    +0.131 A 
ATOM     20  C19 UNL A   1      -2.043  -0.563 -16.539  0.00  0.00    +0.067 A 
ATOM     21  C20 UNL A   1      -0.939  -0.301 -17.314  0.00  0.00    +0.045 A 
ATOM     22  N3  UNL A   1       0.273  -0.052 -16.780  0.00  0.00    -0.220 NA
ATOM     23  C21 UNL A   1       0.401  -0.056 -15.445  0.00  0.00    +0.220 A 
ATOM     24  N4  UNL A   1      -0.636  -0.307 -14.631  0.00  0.00    -0.199 NA
ATOM     25  N5  UNL A   1       1.667   0.176 -14.880  0.00  0.00    -0.299 N 
ATOM     26  C22 UNL A   1       2.589   0.861 -15.792  0.00  0.00    +0.114 C 
ATOM     27  C23 UNL A   1       3.989   0.871 -15.202  0.00  0.00    +0.094 C 
ATOM     28  C24 UNL A   1       3.955   1.439 -13.803  0.00  0.00    +0.252 C 
ATOM     29  C25 UNL A   1       2.992   0.711 -12.896  0.00  0.00    +0.094 C 
ATOM     30  C26 UNL A   1       1.604   0.704 -13.515  0.00  0.00    +0.114 C 
ATOM     31  F1  UNL A   1       5.202   1.386 -13.266  0.00  0.00    -0.206 F 
ATOM     32  F2  UNL A   1       3.625   2.756 -13.854  0.00  0.00    -0.206 F 
ATOM     33  C27 UNL A   1      -1.049  -0.290 -18.808  0.00  0.00    +0.066 C 
ENDBRANCH  16  19
ENDBRANCH   1  15
BRANCH   4  34
ATOM     34  N1  UNL A   1      -7.525  -1.351  -9.988  0.00  0.00    -0.221 N 
ATOM     35  H17 UNL A   1      -7.716  -0.430  -9.579  0.00  0.00    +0.173 HD
BRANCH  34  36
ATOM     36  S1  UNL A   1      -7.779  -2.544  -8.807  0.00  0.00    +0.045 S 
ATOM     37  O2  UNL A   1      -9.054  -2.252  -8.183  0.00  0.00    -0.155 OA
ATOM     38  O3  UNL A   1      -7.516  -3.856  -9.359  0.00  0.00    -0.155 OA
BRANCH  36  39
ATOM     39  C15 UNL A   1      -6.497  -2.171  -7.620  0.00  0.00    +0.216 C 
BRANCH  39  40
ATOM     40  C16 UNL A   1      -6.714  -0.825  -6.957  0.00  0.00    +0.180 C 
BRANCH  40  41
ATOM     41  O1  UNL A   1      -6.612  -0.934  -5.539  0.00  0.00    -0.393 OA
ATOM     42  H22 UNL A   1      -6.488  -0.026  -5.200  0.00  0.00    +0.209 HD
ENDBRANCH  40  41
ENDBRANCH  39  40
ENDBRANCH  36  39
ENDBRANCH  34  36
ENDBRANCH   4  34
TORSDOF 8
ENDMDL
MODEL 4
REMARK VINA RESULT:    -7.625      2.195      3.460
REMARK INTER + INTRA:         -12.503
REMARK INTER:                 -11.061
REMARK INTRA:                  -1.441
REMARK UNBOUND:                -1.535
REMARK  Name = agan7
REMARK  9 active torsions:
REMARK  status: ('A' for Active; 'I' for Inactive)
REMARK    1  A    between atoms: C1_1  and  C17_22
REMARK    2  A    between atoms: C4_4  and  N1_15
REMARK    3  A    between atoms: C6_6  and  C7_7
REMARK    4  A    between atoms: N1_15  and  S1_16
REMARK    5  A    between atoms: S1_16  and  C15_17
REMARK    6  A    between atoms: C15_17  and  C16_18
REMARK    7  A    between atoms: C16_18  and  O1_19
REMARK    8  A    between atoms: N2_23  and  C18_24
REMARK    9  A    between atoms: C20_26  and  C27_38
REMARK                            x       y       z     vdW  Elec       q    Type
REMARK                         _______ _______ _______ _____ _____    ______ ____
ROOT
ATOM      1  C1  UNL A   1      -1.273  -1.558 -15.020  0.00  0.00    +0.041 A 
ATOM      2  C2  UNL A   1      -0.265  -1.506 -14.041  0.00  0.00    +0.015 A 
ATOM      3  C3  UNL A   1       1.043  -1.181 -14.392  0.00  0.00    +0.025 A 
ATOM      4  C4  UNL A   1       1.358  -0.921 -15.720  0.00  0.00    +0.048 A 
ATOM      5  C5  UNL A   1       0.354  -0.965 -16.695  0.00  0.00    +0.029 A 
ATOM      6  C6  UNL A   1      -0.986  -1.279 -16.370  0.00  0.00    -0.030 A 
ENDROOT
BRANCH   6   7
ATOM      7  C7  UNL A   1      -1.986  -1.297 -17.522  0.00  0.00    +0.020 C 
ATOM      8  C8  UNL A   1      -2.574  -2.700 -17.760  0.00  0.00    +0.009 C 
ATOM      9  C9  UNL A   1      -3.462  -2.724 -19.007  0.00  0.00    +0.007 C 
ATOM     10  C10 UNL A   1      -4.516  -1.641 -18.938  0.00  0.00    -0.029 C 
ATOM     11  C11 UNL A   1      -3.951  -0.255 -18.724  0.00  0.00    +0.007 C 
ATOM     12  C12 UNL A   1      -3.091  -0.225 -17.460  0.00  0.00    +0.009 C 
ATOM     13  C13 UNL A   1      -5.747  -1.787 -19.801  0.00  0.00    +0.007 C 
ATOM     14  C14 UNL A   1      -5.852  -1.977 -18.313  0.00  0.00    +0.007 C 
ENDBRANCH   6   7
BRANCH   1  15
ATOM     15  C17 UNL A   1      -2.621  -1.931 -14.534  0.00  0.00    +0.250 C 
ATOM     16  N2  UNL A   1      -3.381  -0.847 -14.163  0.00  0.00    -0.266 N 
ATOM     17  O4  UNL A   1      -2.934  -3.111 -14.488  0.00  0.00    -0.270 OA
ATOM     18  H23 UNL A   1      -2.997   0.083 -14.257  0.00  0.00    +0.157 HD
BRANCH  16  19
ATOM     19  C18 UNL A   1      -4.697  -0.841 -13.693  0.00  0.00    +0.131 A 
ATOM     20  C19 UNL A   1      -5.790  -1.111 -14.479  0.00  0.00    +0.067 A 
ATOM     21  C20 UNL A   1      -7.009  -1.046 -13.849  0.00  0.00    +0.045 A 
ATOM     22  N3  UNL A   1      -7.130  -0.738 -12.543  0.00  0.00    -0.220 NA
ATOM     23  C21 UNL A   1      -6.018  -0.492 -11.835  0.00  0.00    +0.220 A 
ATOM     24  N4  UNL A   1      -4.796  -0.536 -12.389  0.00  0.00    -0.199 NA
ATOM     25  N5  UNL A   1      -6.136  -0.143 -10.478  0.00  0.00    -0.299 N 
ATOM     26  C22 UNL A   1      -7.413  -0.554  -9.886  0.00  0.00    +0.114 C 
ATOM     27  C23 UNL A   1      -7.561   0.051  -8.500  0.00  0.00    +0.094 C 
ATOM     28  C24 UNL A   1      -6.348  -0.277  -7.662  0.00  0.00    +0.252 C 
ATOM     29  C25 UNL A   1      -5.053   0.157  -8.307  0.00  0.00    +0.094 C 
ATOM     30  C26 UNL A   1      -4.937  -0.451  -9.695  0.00  0.00    +0.114 C 
ATOM     31  F1  UNL A   1      -6.466   0.321  -6.448  0.00  0.00    -0.206 F 
ATOM     32  F2  UNL A   1      -6.310  -1.613  -7.420  0.00  0.00    -0.206 F 
ATOM     33  C27 UNL A   1      -8.270  -1.316 -14.613  0.00  0.00    +0.066 C 
ENDBRANCH  16  19
ENDBRANCH   1  15
BRANCH   4  34
ATOM     34  N1  UNL A   1       2.696  -0.600 -16.106  0.00  0.00    -0.221 N 
ATOM     35  H17 UNL A   1       3.419  -1.030 -15.519  0.00  0.00    +0.173 HD
BRANCH  34  36
ATOM     36  S1  UNL A   1       3.086   1.033 -16.355  0.00  0.00    +0.045 S 
ATOM     37  O2  UNL A   1       3.600   1.141 -17.706  0.00  0.00    -0.155 OA
ATOM     38  O3  UNL A   1       1.997   1.878 -15.915  0.00  0.00    -0.155 OA
BRANCH  36  39
ATOM     39  C15 UNL A   1       4.458   1.262 -15.233  0.00  0.00    +0.216 C 
BRANCH  39  40
ATOM     40  C16 UNL A   1       4.005   1.314 -13.788  0.00  0.00    +0.180 C 
BRANCH  40  41
ATOM     41  O1  UNL A   1       3.589   2.631 -13.431  0.00  0.00    -0.393 OA
ATOM     42  H22 UNL A   1       4.097   3.243 -13.998  0.00  0.00    +0.209 HD
ENDBRANCH  40  41
ENDBRANCH  39  40
ENDBRANCH  36  39
ENDBRANCH  34  36
ENDBRANCH   4  34
TORSDOF 8
ENDMDL
MODEL 5
REMARK VINA RESULT:    -7.619      2.473      3.570
REMARK INTER + INTRA:         -12.495
REMARK INTER:                 -10.790
REMARK INTRA:                  -1.705
REMARK UNBOUND:                -1.535
REMARK  Name = agan7
REMARK  9 active torsions:
REMARK  status: ('A' for Active; 'I' for Inactive)
REMARK    1  A    between atoms: C1_1  and  C17_22
REMARK    2  A    between atoms: C4_4  and  N1_15
REMARK    3  A    between atoms: C6_6  and  C7_7
REMARK    4  A    between atoms: N1_15  and  S1_16
REMARK    5  A    between atoms: S1_16  and  C15_17
REMARK    6  A    between atoms: C15_17  and  C16_18
REMARK    7  A    between atoms: C16_18  and  O1_19
REMARK    8  A    between atoms: N2_23  and  C18_24
REMARK    9  A    between atoms: C20_26  and  C27_38
REMARK                            x       y       z     vdW  Elec       q    Type
REMARK                         _______ _______ _______ _____ _____    ______ ____
ROOT
ATOM      1  C1  UNL A   1      -1.541  -0.210 -14.404  0.00  0.00    +0.041 A 
ATOM      2  C2  UNL A   1      -0.663   0.271 -13.416  0.00  0.00    +0.015 A 
ATOM      3  C3  UNL A   1       0.503   0.943 -13.775  0.00  0.00    +0.025 A 
ATOM      4  C4  UNL A   1       0.810   1.125 -15.118  0.00  0.00    +0.048 A 
ATOM      5  C5  UNL A   1      -0.067   0.655 -16.102  0.00  0.00    +0.029 A 
ATOM      6  C6  UNL A   1      -1.266  -0.019 -15.772  0.00  0.00    -0.030 A 
ENDROOT
BRANCH   6   7
ATOM      7  C7  UNL A   1      -2.134  -0.486 -16.935  0.00  0.00    +0.020 C 
ATOM      8  C8  UNL A   1      -2.134   0.517 -18.103  0.00  0.00    +0.009 C 
ATOM      9  C9  UNL A   1      -3.122   0.098 -19.194  0.00  0.00    +0.007 C 
ATOM     10  C10 UNL A   1      -2.864  -1.326 -19.634  0.00  0.00    -0.029 C 
ATOM     11  C11 UNL A   1      -2.882  -2.326 -18.501  0.00  0.00    +0.007 C 
ATOM     12  C12 UNL A   1      -1.870  -1.923 -17.426  0.00  0.00    +0.009 C 
ATOM     13  C13 UNL A   1      -3.390  -1.763 -20.982  0.00  0.00    +0.007 C 
ATOM     14  C14 UNL A   1      -1.913  -1.562 -20.787  0.00  0.00    +0.007 C 
ENDBRANCH   6   7
BRANCH   1  15
ATOM     15  C17 UNL A   1      -2.739  -0.923 -13.906  0.00  0.00    +0.250 C 
ATOM     16  N2  UNL A   1      -3.778  -0.080 -13.590  0.00  0.00    -0.266 N 
ATOM     17  O4  UNL A   1      -2.710  -2.140 -13.805  0.00  0.00    -0.270 OA
ATOM     18  H23 UNL A   1      -3.667   0.916 -13.727  0.00  0.00    +0.157 HD
BRANCH  16  19
ATOM     19  C18 UNL A   1      -5.051  -0.421 -13.126  0.00  0.00    +0.131 A 
ATOM     20  C19 UNL A   1      -6.076  -0.832 -13.941  0.00  0.00    +0.067 A 
ATOM     21  C20 UNL A   1      -7.264  -1.114 -13.311  0.00  0.00    +0.045 A 
ATOM     22  N3  UNL A   1      -7.418  -0.996 -11.978  0.00  0.00    -0.220 NA
ATOM     23  C21 UNL A   1      -6.370  -0.595 -11.242  0.00  0.00    +0.220 A 
ATOM     24  N4  UNL A   1      -5.183  -0.301 -11.795  0.00  0.00    -0.199 NA
ATOM     25  N5  UNL A   1      -6.530  -0.444  -9.854  0.00  0.00    -0.299 N 
ATOM     26  C22 UNL A   1      -7.670  -1.195  -9.319  0.00  0.00    +0.114 C 
ATOM     27  C23 UNL A   1      -7.914  -0.805  -7.871  0.00  0.00    +0.094 C 
ATOM     28  C24 UNL A   1      -6.639  -0.953  -7.075  0.00  0.00    +0.252 C 
ATOM     29  C25 UNL A   1      -5.487  -0.169  -7.660  0.00  0.00    +0.094 C 
ATOM     30  C26 UNL A   1      -5.273  -0.568  -9.111  0.00  0.00    +0.114 C 
ATOM     31  F1  UNL A   1      -6.856  -0.543  -5.798  0.00  0.00    -0.206 F 
ATOM     32  F2  UNL A   1      -6.301  -2.266  -6.996  0.00  0.00    -0.206 F 
ATOM     33  C27 UNL A   1      -8.452  -1.564 -14.105  0.00  0.00    +0.066 C 
ENDBRANCH  16  19
ENDBRANCH   1  15
BRANCH   4  34
ATOM     34  N1  UNL A   1       2.008   1.799 -15.510  0.00  0.00    -0.221 N 
ATOM     35  H17 UNL A   1       1.854   2.623 -16.103  0.00  0.00    +0.173 HD
BRANCH  34  36
ATOM     36  S1  UNL A   1       3.266   0.870 -16.172  0.00  0.00    +0.045 S 
ATOM     37  O2  UNL A   1       2.992  -0.511 -15.832  0.00  0.00    -0.155 OA
ATOM     38  O3  UNL A   1       3.498   1.255 -17.548  0.00  0.00    -0.155 OA
BRANCH  36  39
ATOM     39  C15 UNL A   1       4.669   1.400 -15.200  0.00  0.00    +0.216 C 
BRANCH  39  40
ATOM     40  C16 UNL A   1       4.371   1.371 -13.714  0.00  0.00    +0.180 C 
BRANCH  40  41
ATOM     41  O1  UNL A   1       3.723   2.573 -13.301  0.00  0.00    -0.393 OA
ATOM     42  H22 UNL A   1       3.293   2.942 -14.097  0.00  0.00    +0.209 HD
ENDBRANCH  40  41
ENDBRANCH  39  40
ENDBRANCH  36  39
ENDBRANCH  34  36
ENDBRANCH   4  34
TORSDOF 8
ENDMDL
MODEL 6
REMARK VINA RESULT:    -7.582      3.422      4.388
REMARK INTER + INTRA:         -12.441
REMARK INTER:                 -11.049
REMARK INTRA:                  -1.392
REMARK UNBOUND:                -1.535
REMARK  Name = agan7
REMARK  9 active torsions:
REMARK  status: ('A' for Active; 'I' for Inactive)
REMARK    1  A    between atoms: C1_1  and  C17_22
REMARK    2  A    between atoms: C4_4  and  N1_15
REMARK    3  A    between atoms: C6_6  and  C7_7
REMARK    4  A    between atoms: N1_15  and  S1_16
REMARK    5  A    between atoms: S1_16  and  C15_17
REMARK    6  A    between atoms: C15_17  and  C16_18
REMARK    7  A    between atoms: C16_18  and  O1_19
REMARK    8  A    between atoms: N2_23  and  C18_24
REMARK    9  A    between atoms: C20_26  and  C27_38
REMARK                            x       y       z     vdW  Elec       q    Type
REMARK                         _______ _______ _______ _____ _____    ______ ____
ROOT
ATOM      1  C1  UNL A   1      -1.238  -0.807 -13.572  0.00  0.00    +0.041 A 
ATOM      2  C2  UNL A   1      -0.505  -0.321 -12.475  0.00  0.00    +0.015 A 
ATOM      3  C3  UNL A   1       0.854  -0.041 -12.602  0.00  0.00    +0.025 A 
ATOM      4  C4  UNL A   1       1.493  -0.259 -13.817  0.00  0.00    +0.048 A 
ATOM      5  C5  UNL A   1       0.764  -0.735 -14.912  0.00  0.00    +0.029 A 
ATOM      6  C6  UNL A   1      -0.619  -1.016 -14.820  0.00  0.00    -0.030 A 
ENDROOT
BRANCH   6   7
ATOM      7  C7  UNL A   1      -1.300  -1.534 -16.083  0.00  0.00    +0.020 C 
ATOM      8  C8  UNL A   1      -2.065  -2.847 -15.836  0.00  0.00    +0.009 C 
ATOM      9  C9  UNL A   1      -2.618  -3.421 -17.143  0.00  0.00    +0.007 C 
ATOM     10  C10 UNL A   1      -3.438  -2.385 -17.880  0.00  0.00    -0.029 C 
ATOM     11  C11 UNL A   1      -2.693  -1.096 -18.147  0.00  0.00    +0.007 C 
ATOM     12  C12 UNL A   1      -2.169  -0.508 -16.836  0.00  0.00    +0.009 C 
ATOM     13  C13 UNL A   1      -4.433  -2.864 -18.912  0.00  0.00    +0.007 C 
ATOM     14  C14 UNL A   1      -4.923  -2.312 -17.602  0.00  0.00    +0.007 C 
ENDBRANCH   6   7
BRANCH   1  15
ATOM     15  C17 UNL A   1      -2.669  -1.086 -13.315  0.00  0.00    +0.250 C 
ATOM     16  N2  UNL A   1      -2.877  -2.256 -12.626  0.00  0.00    -0.266 N 
ATOM     17  O4  UNL A   1      -3.512  -0.303 -13.728  0.00  0.00    -0.270 OA
ATOM     18  H23 UNL A   1      -2.082  -2.811 -12.340  0.00  0.00    +0.157 HD
BRANCH  16  19
ATOM     19  C18 UNL A   1      -4.093  -2.796 -12.198  0.00  0.00    +0.131 A 
ATOM     20  C19 UNL A   1      -4.899  -2.210 -11.254  0.00  0.00    +0.067 A 
ATOM     21  C20 UNL A   1      -6.052  -2.891 -10.948  0.00  0.00    +0.045 A 
ATOM     22  N3  UNL A   1      -6.376  -4.061 -11.534  0.00  0.00    -0.220 NA
ATOM     23  C21 UNL A   1      -5.543  -4.572 -12.453  0.00  0.00    +0.220 A 
ATOM     24  N4  UNL A   1      -4.399  -3.959 -12.797  0.00  0.00    -0.199 NA
ATOM     25  N5  UNL A   1      -5.859  -5.805 -13.050  0.00  0.00    -0.299 N 
ATOM     26  C22 UNL A   1      -7.282  -6.146 -12.950  0.00  0.00    +0.114 C 
ATOM     27  C23 UNL A   1      -7.505  -7.577 -13.408  0.00  0.00    +0.094 C 
ATOM     28  C24 UNL A   1      -6.908  -7.779 -14.780  0.00  0.00    +0.252 C 
ATOM     29  C25 UNL A   1      -5.443  -7.413 -14.843  0.00  0.00    +0.094 C 
ATOM     30  C26 UNL A   1      -5.247  -5.982 -14.369  0.00  0.00    +0.114 C 
ATOM     31  F1  UNL A   1      -7.060  -9.077 -15.150  0.00  0.00    -0.206 F 
ATOM     32  F2  UNL A   1      -7.599  -7.045 -15.690  0.00  0.00    -0.206 F 
ATOM     33  C27 UNL A   1      -7.003  -2.347  -9.925  0.00  0.00    +0.066 C 
ENDBRANCH  16  19
ENDBRANCH   1  15
BRANCH   4  34
ATOM     34  N1  UNL A   1       2.889   0.007 -13.967  0.00  0.00    -0.221 N 
ATOM     35  H17 UNL A   1       3.472  -0.351 -13.202  0.00  0.00    +0.173 HD
BRANCH  34  36
ATOM     36  S1  UNL A   1       3.367   1.597 -14.325  0.00  0.00    +0.045 S 
ATOM     37  O2  UNL A   1       2.255   2.225 -15.010  0.00  0.00    -0.155 OA
ATOM     38  O3  UNL A   1       3.952   2.217 -13.156  0.00  0.00    -0.155 OA
BRANCH  36  39
ATOM     39  C15 UNL A   1       4.663   1.334 -15.526  0.00  0.00    +0.216 C 
BRANCH  39  40
ATOM     40  C16 UNL A   1       4.218   0.417 -16.648  0.00  0.00    +0.180 C 
BRANCH  40  41
ATOM     41  O1  UNL A   1       3.234   1.052 -17.463  0.00  0.00    -0.393 OA
ATOM     42  H22 UNL A   1       2.748   0.336 -17.917  0.00  0.00    +0.209 HD
ENDBRANCH  40  41
ENDBRANCH  39  40
ENDBRANCH  36  39
ENDBRANCH  34  36
ENDBRANCH   4  34
TORSDOF 8
ENDMDL
MODEL 7
REMARK VINA RESULT:    -7.510      1.181      1.318
REMARK INTER + INTRA:         -12.338
REMARK INTER:                 -10.373
REMARK INTRA:                  -1.965
REMARK UNBOUND:                -1.535
REMARK  Name = agan7
REMARK  9 active torsions:
REMARK  status: ('A' for Active; 'I' for Inactive)
REMARK    1  A    between atoms: C1_1  and  C17_22
REMARK    2  A    between atoms: C4_4  and  N1_15
REMARK    3  A    between atoms: C6_6  and  C7_7
REMARK    4  A    between atoms: N1_15  and  S1_16
REMARK    5  A    between atoms: S1_16  and  C15_17
REMARK    6  A    between atoms: C15_17  and  C16_18
REMARK    7  A    between atoms: C16_18  and  O1_19
REMARK    8  A    between atoms: N2_23  and  C18_24
REMARK    9  A    between atoms: C20_26  and  C27_38
REMARK                            x       y       z     vdW  Elec       q    Type
REMARK                         _______ _______ _______ _____ _____    ______ ____
ROOT
ATOM      1  C1  UNL A   1      -1.418  -1.355 -13.680  0.00  0.00    +0.041 A 
ATOM      2  C2  UNL A   1      -0.170  -0.898 -13.223  0.00  0.00    +0.015 A 
ATOM      3  C3  UNL A   1       0.887  -0.721 -14.113  0.00  0.00    +0.025 A 
ATOM      4  C4  UNL A   1       0.711  -1.014 -15.460  0.00  0.00    +0.048 A 
ATOM      5  C5  UNL A   1      -0.533  -1.461 -15.919  0.00  0.00    +0.029 A 
ATOM      6  C6  UNL A   1      -1.630  -1.638 -15.044  0.00  0.00    -0.030 A 
ENDROOT
BRANCH   6   7
ATOM      7  C7  UNL A   1      -2.932  -2.134 -15.665  0.00  0.00    +0.020 C 
ATOM      8  C8  UNL A   1      -3.969  -1.007 -15.821  0.00  0.00    +0.009 C 
ATOM      9  C9  UNL A   1      -5.312  -1.554 -16.311  0.00  0.00    +0.007 C 
ATOM     10  C10 UNL A   1      -5.132  -2.374 -17.569  0.00  0.00    -0.029 C 
ATOM     11  C11 UNL A   1      -4.130  -3.498 -17.425  0.00  0.00    +0.007 C 
ATOM     12  C12 UNL A   1      -2.780  -2.945 -16.966  0.00  0.00    +0.009 C 
ATOM     13  C13 UNL A   1      -6.336  -2.599 -18.454  0.00  0.00    +0.007 C 
ATOM     14  C14 UNL A   1      -5.239  -1.675 -18.906  0.00  0.00    +0.007 C 
ENDBRANCH   6   7
BRANCH   1  15
ATOM     15  C17 UNL A   1      -2.461  -1.521 -12.643  0.00  0.00    +0.250 C 
ATOM     16  N2  UNL A   1      -2.938  -0.327 -12.159  0.00  0.00    -0.266 N 
ATOM     17  O4  UNL A   1      -2.790  -2.647 -12.302  0.00  0.00    -0.270 OA
ATOM     18  H23 UNL A   1      -2.578   0.540 -12.535  0.00  0.00    +0.157 HD
BRANCH  16  19
ATOM     19  C18 UNL A   1      -3.938  -0.124 -11.204  0.00  0.00    +0.131 A 
ATOM     20  C19 UNL A   1      -3.688   0.156  -9.884  0.00  0.00    +0.067 A 
ATOM     21  C20 UNL A   1      -4.796   0.312  -9.086  0.00  0.00    +0.045 A 
ATOM     22  N3  UNL A   1      -6.050   0.199  -9.564  0.00  0.00    -0.220 NA
ATOM     23  C21 UNL A   1      -6.219  -0.070 -10.868  0.00  0.00    +0.220 A 
ATOM     24  N4  UNL A   1      -5.181  -0.237 -11.702  0.00  0.00    -0.199 NA
ATOM     25  N5  UNL A   1      -7.524  -0.216 -11.370  0.00  0.00    -0.299 N 
ATOM     26  C22 UNL A   1      -8.543   0.410 -10.521  0.00  0.00    +0.114 C 
ATOM     27  C23 UNL A   1      -9.930   0.018 -11.002  0.00  0.00    +0.094 C 
ATOM     28  C24 UNL A   1     -10.071   0.321 -12.474  0.00  0.00    +0.252 C 
ATOM     29  C25 UNL A   1      -9.001  -0.337 -13.314  0.00  0.00    +0.094 C 
ATOM     30  C26 UNL A   1      -7.626   0.061 -12.805  0.00  0.00    +0.114 C 
ATOM     31  F1  UNL A   1     -11.292  -0.090 -12.903  0.00  0.00    -0.206 F 
ATOM     32  F2  UNL A   1     -10.038   1.665 -12.668  0.00  0.00    -0.206 F 
ATOM     33  C27 UNL A   1      -4.639   0.612  -7.626  0.00  0.00    +0.066 C 
ENDBRANCH  16  19
ENDBRANCH   1  15
BRANCH   4  34
ATOM     34  N1  UNL A   1       1.785  -0.855 -16.389  0.00  0.00    -0.221 N 
ATOM     35  H17 UNL A   1       2.717  -1.007 -15.988  0.00  0.00    +0.173 HD
BRANCH  34  36
ATOM     36  S1  UNL A   1       1.817   0.551 -17.341  0.00  0.00    +0.045 S 
ATOM     37  O2  UNL A   1       1.057   0.264 -18.541  0.00  0.00    -0.155 OA
ATOM     38  O3  UNL A   1       1.500   1.708 -16.532  0.00  0.00    -0.155 OA
BRANCH  36  39
ATOM     39  C15 UNL A   1       3.541   0.648 -17.802  0.00  0.00    +0.216 C 
BRANCH  39  40
ATOM     40  C16 UNL A   1       4.448   0.109 -16.714  0.00  0.00    +0.180 C 
BRANCH  40  41
ATOM     41  O1  UNL A   1       4.302   0.860 -15.510  0.00  0.00    -0.393 OA
ATOM     42  H22 UNL A   1       3.772   1.648 -15.739  0.00  0.00    +0.209 HD
ENDBRANCH  40  41
ENDBRANCH  39  40
ENDBRANCH  36  39
ENDBRANCH  34  36
ENDBRANCH   4  34
TORSDOF 8
ENDMDL
MODEL 8
REMARK VINA RESULT:    -7.314      5.129      9.508
REMARK INTER + INTRA:         -12.055
REMARK INTER:                 -10.972
REMARK INTRA:                  -1.084
REMARK UNBOUND:                -1.535
REMARK  Name = agan7
REMARK  9 active torsions:
REMARK  status: ('A' for Active; 'I' for Inactive)
REMARK    1  A    between atoms: C1_1  and  C17_22
REMARK    2  A    between atoms: C4_4  and  N1_15
REMARK    3  A    between atoms: C6_6  and  C7_7
REMARK    4  A    between atoms: N1_15  and  S1_16
REMARK    5  A    between atoms: S1_16  and  C15_17
REMARK    6  A    between atoms: C15_17  and  C16_18
REMARK    7  A    between atoms: C16_18  and  O1_19
REMARK    8  A    between atoms: N2_23  and  C18_24
REMARK    9  A    between atoms: C20_26  and  C27_38
REMARK                            x       y       z     vdW  Elec       q    Type
REMARK                         _______ _______ _______ _____ _____    ______ ____
ROOT
ATOM      1  C1  UNL A   1      -4.195  -1.262 -11.563  0.00  0.00    +0.041 A 
ATOM      2  C2  UNL A   1      -4.388  -0.294 -10.562  0.00  0.00    +0.015 A 
ATOM      3  C3  UNL A   1      -5.383  -0.460  -9.602  0.00  0.00    +0.025 A 
ATOM      4  C4  UNL A   1      -6.201  -1.583  -9.642  0.00  0.00    +0.048 A 
ATOM      5  C5  UNL A   1      -6.005  -2.551 -10.633  0.00  0.00    +0.029 A 
ATOM      6  C6  UNL A   1      -4.995  -2.419 -11.615  0.00  0.00    -0.030 A 
ENDROOT
BRANCH   6   7
ATOM      7  C7  UNL A   1      -4.885  -3.541 -12.642  0.00  0.00    +0.020 C 
ATOM      8  C8  UNL A   1      -5.817  -4.723 -12.318  0.00  0.00    +0.009 C 
ATOM      9  C9  UNL A   1      -5.585  -5.892 -13.278  0.00  0.00    +0.007 C 
ATOM     10  C10 UNL A   1      -5.685  -5.434 -14.716  0.00  0.00    -0.029 C 
ATOM     11  C11 UNL A   1      -4.760  -4.286 -15.056  0.00  0.00    +0.007 C 
ATOM     12  C12 UNL A   1      -5.016  -3.107 -14.115  0.00  0.00    +0.009 C 
ATOM     13  C13 UNL A   1      -5.955  -6.473 -15.780  0.00  0.00    +0.007 C 
ATOM     14  C14 UNL A   1      -7.033  -5.496 -15.400  0.00  0.00    +0.007 C 
ENDBRANCH   6   7
BRANCH   1  15
ATOM     15  C17 UNL A   1      -3.120  -0.971 -12.539  0.00  0.00    +0.250 C 
ATOM     16  N2  UNL A   1      -3.458   0.012 -13.438  0.00  0.00    -0.266 N 
ATOM     17  O4  UNL A   1      -2.077  -1.604 -12.484  0.00  0.00    -0.270 OA
ATOM     18  H23 UNL A   1      -4.362   0.460 -13.368  0.00  0.00    +0.157 HD
BRANCH  16  19
ATOM     19  C18 UNL A   1      -2.672   0.546 -14.464  0.00  0.00    +0.131 A 
ATOM     20  C19 UNL A   1      -3.185   1.102 -15.608  0.00  0.00    +0.067 A 
ATOM     21  C20 UNL A   1      -2.261   1.565 -16.514  0.00  0.00    +0.045 A 
ATOM     22  N3  UNL A   1      -0.934   1.481 -16.296  0.00  0.00    -0.220 NA
ATOM     23  C21 UNL A   1      -0.504   0.931 -15.151  0.00  0.00    +0.220 A 
ATOM     24  N4  UNL A   1      -1.353   0.456 -14.225  0.00  0.00    -0.199 NA
ATOM     25  N5  UNL A   1       0.879   0.814 -14.927  0.00  0.00    -0.299 N 
ATOM     26  C22 UNL A   1       1.675   1.733 -15.747  0.00  0.00    +0.114 C 
ATOM     27  C23 UNL A   1       3.151   1.395 -15.621  0.00  0.00    +0.094 C 
ATOM     28  C24 UNL A   1       3.547   1.352 -14.164  0.00  0.00    +0.252 C 
ATOM     29  C25 UNL A   1       2.702   0.399 -13.352  0.00  0.00    +0.094 C 
ATOM     30  C26 UNL A   1       1.232   0.751 -13.507  0.00  0.00    +0.114 C 
ATOM     31  F1  UNL A   1       4.852   0.989 -14.064  0.00  0.00    -0.206 F 
ATOM     32  F2  UNL A   1       3.463   2.600 -13.633  0.00  0.00    -0.206 F 
ATOM     33  C27 UNL A   1      -2.711   2.185 -17.802  0.00  0.00    +0.066 C 
ENDBRANCH  16  19
ENDBRANCH   1  15
BRANCH   4  34
ATOM     34  N1  UNL A   1      -7.238  -1.768  -8.676  0.00  0.00    -0.221 N 
ATOM     35  H17 UNL A   1      -7.345  -2.736  -8.353  0.00  0.00    +0.173 HD
BRANCH  34  36
ATOM     36  S1  UNL A   1      -8.772  -1.127  -9.018  0.00  0.00    +0.045 S 
ATOM     37  O2  UNL A   1      -9.525  -1.155  -7.780  0.00  0.00    -0.155 OA
ATOM     38  O3  UNL A   1      -8.643   0.103  -9.770  0.00  0.00    -0.155 OA
BRANCH  36  39
ATOM     39  C15 UNL A   1      -9.462  -2.372 -10.100  0.00  0.00    +0.216 C 
BRANCH  39  40
ATOM     40  C16 UNL A   1     -10.969  -2.252 -10.211  0.00  0.00    +0.180 C 
BRANCH  40  41
ATOM     41  O1  UNL A   1     -11.387  -0.900 -10.034  0.00  0.00    -0.393 OA
ATOM     42  H22 UNL A   1     -10.628  -0.425  -9.642  0.00  0.00    +0.209 HD
ENDBRANCH  40  41
ENDBRANCH  39  40
ENDBRANCH  36  39
ENDBRANCH  34  36
ENDBRANCH   4  34
TORSDOF 8
ENDMDL
MODEL 9
REMARK VINA RESULT:    -7.228      1.175      1.651
REMARK INTER + INTRA:         -11.932
REMARK INTER:                 -10.437
REMARK INTRA:                  -1.495
REMARK UNBOUND:                -1.535
REMARK  Name = agan7
REMARK  9 active torsions:
REMARK  status: ('A' for Active; 'I' for Inactive)
REMARK    1  A    between atoms: C1_1  and  C17_22
REMARK    2  A    between atoms: C4_4  and  N1_15
REMARK    3  A    between atoms: C6_6  and  C7_7
REMARK    4  A    between atoms: N1_15  and  S1_16
REMARK    5  A    between atoms: S1_16  and  C15_17
REMARK    6  A    between atoms: C15_17  and  C16_18
REMARK    7  A    between atoms: C16_18  and  O1_19
REMARK    8  A    between atoms: N2_23  and  C18_24
REMARK    9  A    between atoms: C20_26  and  C27_38
REMARK                            x       y       z     vdW  Elec       q    Type
REMARK                         _______ _______ _______ _____ _____    ______ ____
ROOT
ATOM      1  C1  UNL A   1      -1.135  -1.172 -13.281  0.00  0.00    +0.041 A 
ATOM      2  C2  UNL A   1       0.004  -0.670 -12.626  0.00  0.00    +0.015 A 
ATOM      3  C3  UNL A   1       1.186  -0.455 -13.331  0.00  0.00    +0.025 A 
ATOM      4  C4  UNL A   1       1.245  -0.754 -14.687  0.00  0.00    +0.048 A 
ATOM      5  C5  UNL A   1       0.111  -1.246 -15.342  0.00  0.00    +0.029 A 
ATOM      6  C6  UNL A   1      -1.109  -1.463 -14.659  0.00  0.00    -0.030 A 
ENDROOT
BRANCH   6   7
ATOM      7  C7  UNL A   1      -2.271  -2.005 -15.483  0.00  0.00    +0.020 C 
ATOM      8  C8  UNL A   1      -2.767  -0.990 -16.530  0.00  0.00    +0.009 C 
ATOM      9  C9  UNL A   1      -4.022  -1.499 -17.244  0.00  0.00    +0.007 C 
ATOM     10  C10 UNL A   1      -3.791  -2.880 -17.817  0.00  0.00    -0.029 C 
ATOM     11  C11 UNL A   1      -3.323  -3.893 -16.796  0.00  0.00    +0.007 C 
ATOM     12  C12 UNL A   1      -2.051  -3.397 -16.106  0.00  0.00    +0.009 C 
ATOM     13  C13 UNL A   1      -4.699  -3.352 -18.929  0.00  0.00    +0.007 C 
ATOM     14  C14 UNL A   1      -3.271  -2.994 -19.233  0.00  0.00    +0.007 C 
ENDBRANCH   6   7
BRANCH   1  15
ATOM     15  C17 UNL A   1      -2.328  -1.375 -12.428  0.00  0.00    +0.250 C 
ATOM     16  N2  UNL A   1      -2.690  -0.250 -11.727  0.00  0.00    -0.266 N 
ATOM     17  O4  UNL A   1      -2.862  -2.474 -12.402  0.00  0.00    -0.270 OA
ATOM     18  H23 UNL A   1      -2.158   0.601 -11.846  0.00  0.00    +0.157 HD
BRANCH  16  19
ATOM     19  C18 UNL A   1      -3.776  -0.089 -10.862  0.00  0.00    +0.131 A 
ATOM     20  C19 UNL A   1      -3.703   0.569  -9.660  0.00  0.00    +0.067 A 
ATOM     21  C20 UNL A   1      -4.870   0.619  -8.935  0.00  0.00    +0.045 A 
ATOM     22  N3  UNL A   1      -6.014   0.059  -9.372  0.00  0.00    -0.220 NA
ATOM     23  C21 UNL A   1      -6.013  -0.564 -10.560  0.00  0.00    +0.220 A 
ATOM     24  N4  UNL A   1      -4.908  -0.651 -11.318  0.00  0.00    -0.199 NA
ATOM     25  N5  UNL A   1      -7.196  -1.175 -11.012  0.00  0.00    -0.299 N 
ATOM     26  C22 UNL A   1      -8.401  -0.652 -10.360  0.00  0.00    +0.114 C 
ATOM     27  C23 UNL A   1      -9.601  -1.507 -10.726  0.00  0.00    +0.094 C 
ATOM     28  C24 UNL A   1      -9.707  -1.632 -12.227  0.00  0.00    +0.252 C 
ATOM     29  C25 UNL A   1      -8.446  -2.170 -12.862  0.00  0.00    +0.094 C 
ATOM     30  C26 UNL A   1      -7.259  -1.304 -12.470  0.00  0.00    +0.114 C 
ATOM     31  F1  UNL A   1     -10.747  -2.449 -12.538  0.00  0.00    -0.206 F 
ATOM     32  F2  UNL A   1     -10.006  -0.422 -12.765  0.00  0.00    -0.206 F 
ATOM     33  C27 UNL A   1      -4.903   1.306  -7.604  0.00  0.00    +0.066 C 
ENDBRANCH  16  19
ENDBRANCH   1  15
BRANCH   4  34
ATOM     34  N1  UNL A   1       2.451  -0.557 -15.428  0.00  0.00    -0.221 N 
ATOM     35  H17 UNL A   1       3.247  -1.113 -15.095  0.00  0.00    +0.173 HD
BRANCH  34  36
ATOM     36  S1  UNL A   1       2.969   1.037 -15.702  0.00  0.00    +0.045 S 
ATOM     37  O2  UNL A   1       1.822   1.772 -16.196  0.00  0.00    -0.155 OA
ATOM     38  O3  UNL A   1       3.715   1.522 -14.561  0.00  0.00    -0.155 OA
BRANCH  36  39
ATOM     39  C15 UNL A   1       4.107   0.828 -17.065  0.00  0.00    +0.216 C 
BRANCH  39  40
ATOM     40  C16 UNL A   1       3.392   0.817 -18.401  0.00  0.00    +0.180 C 
BRANCH  40  41
ATOM     41  O1  UNL A   1       2.174   0.078 -18.321  0.00  0.00    -0.393 OA
ATOM     42  H22 UNL A   1       2.056  -0.353 -19.190  0.00  0.00    +0.209 HD
ENDBRANCH  40  41
ENDBRANCH  39  40
ENDBRANCH  36  39
ENDBRANCH  34  36
ENDBRANCH   4  34
TORSDOF 8
ENDMDL
