MODEL 1
REMARK VINA RESULT:    -7.521      0.000      0.000
REMARK INTER + INTRA:         -12.424
REMARK INTER:                 -10.818
REMARK INTRA:                  -1.606
REMARK UNBOUND:                -1.606
REMARK  Name = agan10
REMARK  8 active torsions:
REMARK  status: ('A' for Active; 'I' for Inactive)
REMARK    1  A    between atoms: C1_1  and  C16_22
REMARK    2  A    between atoms: C4_4  and  N2_15
REMARK    3  A    between atoms: C6_6  and  N1_7
REMARK    4  A    between atoms: N2_15  and  S1_16
REMARK    5  A    between atoms: S1_16  and  C14_17
REMARK    6  A    between atoms: C14_17  and  C15_18
REMARK    7  A    between atoms: C15_18  and  O1_19
REMARK    8  A    between atoms: C22_30  and  N4_31
REMARK                            x       y       z     vdW  Elec       q    Type
REMARK                         _______ _______ _______ _____ _____    ______ ____
ROOT
ATOM      1  C1  UNL A   1      -1.154  -0.768 -13.088  0.00  0.00    +0.028 A 
ATOM      2  C2  UNL A   1      -0.032  -0.203 -12.442  0.00  0.00    +0.014 A 
ATOM      3  C3  UNL A   1       1.201  -0.093 -13.087  0.00  0.00    +0.025 A 
ATOM      4  C4  UNL A   1       1.335  -0.562 -14.386  0.00  0.00    +0.050 A 
ATOM      5  C5  UNL A   1       0.238  -1.123 -15.040  0.00  0.00    +0.048 A 
ATOM      6  C6  UNL A   1      -1.022  -1.242 -14.415  0.00  0.00    +0.041 A 
ENDROOT
BRANCH   1   7
ATOM      7  C16 UNL A   1      -2.394  -0.871 -12.312  0.00  0.00    +0.111 A 
ATOM      8  N3  UNL A   1      -3.228  -1.883 -12.354  0.00  0.00    -0.237 NA
ATOM      9  C17 UNL A   1      -4.313  -1.672 -11.505  0.00  0.00    +0.100 A 
ATOM     10  C18 UNL A   1      -4.260  -0.464 -10.802  0.00  0.00    +0.041 A 
ATOM     11  S2  UNL A   1      -2.821   0.387 -11.225  0.00  0.00    -0.067 S 
ATOM     12  C19 UNL A   1      -5.264  -0.066  -9.906  0.00  0.00    +0.017 A 
ATOM     13  C20 UNL A   1      -6.351  -0.914  -9.721  0.00  0.00    +0.003 A 
ATOM     14  C21 UNL A   1      -6.431  -2.119 -10.412  0.00  0.00    +0.025 A 
ATOM     15  C22 UNL A   1      -5.433  -2.543 -11.322  0.00  0.00    +0.057 A 
BRANCH  15  16
ATOM     16  N4  UNL A   1      -5.647  -3.806 -11.961  0.00  0.00    -0.328 N 
ATOM     17  C23 UNL A   1      -5.628  -3.765 -13.433  0.00  0.00    +0.111 C 
ATOM     18  C24 UNL A   1      -5.587  -5.192 -13.956  0.00  0.00    +0.094 C 
ATOM     19  C25 UNL A   1      -6.775  -5.953 -13.407  0.00  0.00    +0.252 C 
ATOM     20  C26 UNL A   1      -6.873  -5.911 -11.897  0.00  0.00    +0.094 C 
ATOM     21  C27 UNL A   1      -6.847  -4.469 -11.418  0.00  0.00    +0.111 C 
ATOM     22  F1  UNL A   1      -7.921  -5.453 -13.943  0.00  0.00    -0.206 F 
ATOM     23  F2  UNL A   1      -6.706  -7.248 -13.814  0.00  0.00    -0.206 F 
ENDBRANCH  15  16
ENDBRANCH   1   7
BRANCH   6  24
ATOM     24  N1  UNL A   1      -2.021  -1.838 -15.206  0.00  0.00    -0.329 N 
ATOM     25  C7  UNL A   1      -1.683  -3.100 -15.884  0.00  0.00    +0.105 C 
ATOM     26  C8  UNL A   1      -2.979  -3.787 -16.338  0.00  0.00    +0.026 C 
ATOM     27  C9  UNL A   1      -3.803  -2.851 -17.205  0.00  0.00    -0.026 C 
ATOM     28  C10 UNL A   1      -4.045  -1.500 -16.559  0.00  0.00    +0.026 C 
ATOM     29  C11 UNL A   1      -2.727  -0.876 -16.076  0.00  0.00    +0.105 C 
ATOM     30  C12 UNL A   1      -3.655  -2.923 -18.710  0.00  0.00    +0.007 C 
ATOM     31  C13 UNL A   1      -4.902  -3.448 -18.056  0.00  0.00    +0.007 C 
ENDBRANCH   6  24
BRANCH   4  32
ATOM     32  N2  UNL A   1       2.577  -0.431 -15.078  0.00  0.00    -0.221 N 
ATOM     33  H16 UNL A   1       2.713  -1.105 -15.836  0.00  0.00    +0.173 HD
BRANCH  32  34
ATOM     34  S1  UNL A   1       2.993   1.111 -15.643  0.00  0.00    +0.045 S 
ATOM     35  O2  UNL A   1       1.832   1.579 -16.371  0.00  0.00    -0.155 OA
ATOM     36  O3  UNL A   1       3.586   1.897 -14.585  0.00  0.00    -0.155 OA
BRANCH  34  37
ATOM     37  C14 UNL A   1       4.250   0.706 -16.834  0.00  0.00    +0.216 C 
BRANCH  37  38
ATOM     38  C15 UNL A   1       3.613   0.364 -18.165  0.00  0.00    +0.180 C 
BRANCH  38  39
ATOM     39  O1  UNL A   1       4.627  -0.068 -19.069  0.00  0.00    -0.393 OA
ATOM     40  H21 UNL A   1       5.299  -0.535 -18.542  0.00  0.00    +0.209 HD
ENDBRANCH  38  39
ENDBRANCH  37  38
ENDBRANCH  34  37
ENDBRANCH  32  34
ENDBRANCH   4  32
TORSDOF 8
ENDMDL
MODEL 2
REMARK VINA RESULT:    -7.411      1.057      1.748
REMARK INTER + INTRA:         -12.267
REMARK INTER:                 -10.956
REMARK INTRA:                  -1.310
REMARK UNBOUND:                -1.606
REMARK  Name = agan10
REMARK  8 active torsions:
REMARK  status: ('A' for Active; 'I' for Inactive)
REMARK    1  A    between atoms: C1_1  and  C16_22
REMARK    2  A    between atoms: C4_4  and  N2_15
REMARK    3  A    between atoms: C6_6  and  N1_7
REMARK    4  A    between atoms: N2_15  and  S1_16
REMARK    5  A    between atoms: S1_16  and  C14_17
REMARK    6  A    between atoms: C14_17  and  C15_18
REMARK    7  A    between atoms: C15_18  and  O1_19
REMARK    8  A    between atoms: C22_30  and  N4_31
REMARK                            x       y       z     vdW  Elec       q    Type
REMARK                         _______ _______ _______ _____ _____    ______ ____
ROOT
ATOM      1  C1  UNL A   1      -1.199  -0.636 -12.978  0.00  0.00    +0.028 A 
ATOM      2  C2  UNL A   1      -0.009  -0.157 -12.386  0.00  0.00    +0.014 A 
ATOM      3  C3  UNL A   1       1.186  -0.093 -13.103  0.00  0.00    +0.025 A 
ATOM      4  C4  UNL A   1       1.214  -0.521 -14.423  0.00  0.00    +0.050 A 
ATOM      5  C5  UNL A   1       0.048  -0.997 -15.024  0.00  0.00    +0.048 A 
ATOM      6  C6  UNL A   1      -1.176  -1.068 -14.324  0.00  0.00    +0.041 A 
ENDROOT
BRANCH   1   7
ATOM      7  C16 UNL A   1      -2.393  -0.697 -12.129  0.00  0.00    +0.111 A 
ATOM      8  N3  UNL A   1      -3.371  -1.562 -12.264  0.00  0.00    -0.237 NA
ATOM      9  C17 UNL A   1      -4.361  -1.351 -11.305  0.00  0.00    +0.100 A 
ATOM     10  C18 UNL A   1      -4.086  -0.300 -10.425  0.00  0.00    +0.041 A 
ATOM     11  S2  UNL A   1      -2.564   0.404 -10.822  0.00  0.00    -0.067 S 
ATOM     12  C19 UNL A   1      -4.966   0.074  -9.397  0.00  0.00    +0.017 A 
ATOM     13  C20 UNL A   1      -6.155  -0.635  -9.261  0.00  0.00    +0.003 A 
ATOM     14  C21 UNL A   1      -6.455  -1.682 -10.128  0.00  0.00    +0.025 A 
ATOM     15  C22 UNL A   1      -5.586  -2.078 -11.173  0.00  0.00    +0.057 A 
BRANCH  15  16
ATOM     16  N4  UNL A   1      -6.023  -3.172 -11.986  0.00  0.00    -0.328 N 
ATOM     17  C23 UNL A   1      -7.417  -3.592 -11.761  0.00  0.00    +0.111 C 
ATOM     18  C24 UNL A   1      -7.817  -4.555 -12.868  0.00  0.00    +0.094 C 
ATOM     19  C25 UNL A   1      -6.850  -5.718 -12.884  0.00  0.00    +0.252 C 
ATOM     20  C26 UNL A   1      -5.400  -5.298 -13.003  0.00  0.00    +0.094 C 
ATOM     21  C27 UNL A   1      -5.064  -4.290 -11.915  0.00  0.00    +0.111 C 
ATOM     22  F1  UNL A   1      -7.010  -6.456 -11.752  0.00  0.00    -0.206 F 
ATOM     23  F2  UNL A   1      -7.160  -6.546 -13.916  0.00  0.00    -0.206 F 
ENDBRANCH  15  16
ENDBRANCH   1   7
BRANCH   6  24
ATOM     24  N1  UNL A   1      -2.254  -1.579 -15.070  0.00  0.00    -0.329 N 
ATOM     25  C7  UNL A   1      -2.016  -2.805 -15.850  0.00  0.00    +0.105 C 
ATOM     26  C8  UNL A   1      -3.368  -3.419 -16.242  0.00  0.00    +0.026 C 
ATOM     27  C9  UNL A   1      -4.220  -2.403 -16.982  0.00  0.00    -0.026 C 
ATOM     28  C10 UNL A   1      -4.362  -1.089 -16.236  0.00  0.00    +0.026 C 
ATOM     29  C11 UNL A   1      -2.988  -0.540 -15.821  0.00  0.00    +0.105 C 
ATOM     30  C12 UNL A   1      -4.190  -2.382 -18.495  0.00  0.00    +0.007 C 
ATOM     31  C13 UNL A   1      -5.403  -2.907 -17.778  0.00  0.00    +0.007 C 
ENDBRANCH   6  24
BRANCH   4  32
ATOM     32  N2  UNL A   1       2.416  -0.434 -15.187  0.00  0.00    -0.221 N 
ATOM     33  H16 UNL A   1       2.513  -1.153 -15.909  0.00  0.00    +0.173 HD
BRANCH  32  34
ATOM     34  S1  UNL A   1       2.800   1.070 -15.864  0.00  0.00    +0.045 S 
ATOM     35  O2  UNL A   1       3.375   0.772 -17.159  0.00  0.00    -0.155 OA
ATOM     36  O3  UNL A   1       1.692   1.988 -15.724  0.00  0.00    -0.155 OA
BRANCH  34  37
ATOM     37  C14 UNL A   1       4.121   1.594 -14.794  0.00  0.00    +0.216 C 
BRANCH  37  38
ATOM     38  C15 UNL A   1       3.570   1.970 -13.435  0.00  0.00    +0.180 C 
BRANCH  38  39
ATOM     39  O1  UNL A   1       2.879   3.212 -13.540  0.00  0.00    -0.393 OA
ATOM     40  H21 UNL A   1       3.421   3.794 -14.102  0.00  0.00    +0.209 HD
ENDBRANCH  38  39
ENDBRANCH  37  38
ENDBRANCH  34  37
ENDBRANCH  32  34
ENDBRANCH   4  32
TORSDOF 8
ENDMDL
MODEL 3
REMARK VINA RESULT:    -7.135      2.654      3.346
REMARK INTER + INTRA:         -11.869
REMARK INTER:                 -10.180
REMARK INTRA:                  -1.689
REMARK UNBOUND:                -1.606
REMARK  Name = agan10
REMARK  8 active torsions:
REMARK  status: ('A' for Active; 'I' for Inactive)
REMARK    1  A    between atoms: C1_1  and  C16_22
REMARK    2  A    between atoms: C4_4  and  N2_15
REMARK    3  A    between atoms: C6_6  and  N1_7
REMARK    4  A    between atoms: N2_15  and  S1_16
REMARK    5  A    between atoms: S1_16  and  C14_17
REMARK    6  A    between atoms: C14_17  and  C15_18
REMARK    7  A    between atoms: C15_18  and  O1_19
REMARK    8  A    between atoms: C22_30  and  N4_31
REMARK                            x       y       z     vdW  Elec       q    Type
REMARK                         _______ _______ _______ _____ _____    ______ ____
ROOT
ATOM      1  C1  UNL A   1      -2.442   0.081 -13.920  0.00  0.00    +0.028 A 
ATOM      2  C2  UNL A   1      -1.599   0.901 -13.138  0.00  0.00    +0.014 A 
ATOM      3  C3  UNL A   1      -0.212   0.883 -13.298  0.00  0.00    +0.025 A 
ATOM      4  C4  UNL A   1       0.354   0.032 -14.236  0.00  0.00    +0.050 A 
ATOM      5  C5  UNL A   1      -0.463  -0.785 -15.018  0.00  0.00    +0.048 A 
ATOM      6  C6  UNL A   1      -1.869  -0.783 -14.881  0.00  0.00    +0.041 A 
ENDROOT
BRANCH   1   7
ATOM      7  C16 UNL A   1      -3.882   0.148 -13.649  0.00  0.00    +0.111 A 
ATOM      8  N3  UNL A   1      -4.490  -0.452 -12.652  0.00  0.00    -0.237 NA
ATOM      9  C17 UNL A   1      -5.860  -0.196 -12.676  0.00  0.00    +0.100 A 
ATOM     10  C18 UNL A   1      -6.266   0.638 -13.723  0.00  0.00    +0.041 A 
ATOM     11  S2  UNL A   1      -4.894   1.095 -14.661  0.00  0.00    -0.067 S 
ATOM     12  C19 UNL A   1      -7.606   1.003 -13.923  0.00  0.00    +0.017 A 
ATOM     13  C20 UNL A   1      -8.559   0.507 -13.038  0.00  0.00    +0.003 A 
ATOM     14  C21 UNL A   1      -8.183  -0.329 -11.991  0.00  0.00    +0.025 A 
ATOM     15  C22 UNL A   1      -6.839  -0.714 -11.769  0.00  0.00    +0.057 A 
BRANCH  15  16
ATOM     16  N4  UNL A   1      -6.598  -1.577 -10.654  0.00  0.00    -0.328 N 
ATOM     17  C23 UNL A   1      -7.183  -2.923 -10.776  0.00  0.00    +0.111 C 
ATOM     18  C24 UNL A   1      -6.619  -3.799  -9.668  0.00  0.00    +0.094 C 
ATOM     19  C25 UNL A   1      -6.910  -3.152  -8.331  0.00  0.00    +0.252 C 
ATOM     20  C26 UNL A   1      -6.413  -1.726  -8.228  0.00  0.00    +0.094 C 
ATOM     21  C27 UNL A   1      -6.953  -0.906  -9.389  0.00  0.00    +0.111 C 
ATOM     22  F1  UNL A   1      -8.251  -3.176  -8.100  0.00  0.00    -0.206 F 
ATOM     23  F2  UNL A   1      -6.348  -3.894  -7.341  0.00  0.00    -0.206 F 
ENDBRANCH  15  16
ENDBRANCH   1   7
BRANCH   6  24
ATOM     24  N1  UNL A   1      -2.547  -1.671 -15.736  0.00  0.00    -0.329 N 
ATOM     25  C7  UNL A   1      -1.921  -2.979 -15.988  0.00  0.00    +0.105 C 
ATOM     26  C8  UNL A   1      -2.971  -3.930 -16.582  0.00  0.00    +0.026 C 
ATOM     27  C9  UNL A   1      -3.596  -3.324 -17.826  0.00  0.00    -0.026 C 
ATOM     28  C10 UNL A   1      -4.130  -1.921 -17.601  0.00  0.00    +0.026 C 
ATOM     29  C11 UNL A   1      -3.062  -1.022 -16.960  0.00  0.00    +0.105 C 
ATOM     30  C12 UNL A   1      -3.024  -3.677 -19.182  0.00  0.00    +0.007 C 
ATOM     31  C13 UNL A   1      -4.354  -4.238 -18.763  0.00  0.00    +0.007 C 
ENDBRANCH   6  24
BRANCH   4  32
ATOM     32  N2  UNL A   1       1.766   0.019 -14.443  0.00  0.00    -0.221 N 
ATOM     33  H16 UNL A   1       2.125  -0.838 -14.872  0.00  0.00    +0.173 HD
BRANCH  32  34
ATOM     34  S1  UNL A   1       2.447   1.350 -15.239  0.00  0.00    +0.045 S 
ATOM     35  O2  UNL A   1       3.685   0.862 -15.811  0.00  0.00    -0.155 OA
ATOM     36  O3  UNL A   1       1.456   2.020 -16.050  0.00  0.00    -0.155 OA
BRANCH  34  37
ATOM     37  C14 UNL A   1       2.864   2.392 -13.859  0.00  0.00    +0.216 C 
BRANCH  37  38
ATOM     38  C15 UNL A   1       3.800   1.661 -12.921  0.00  0.00    +0.180 C 
BRANCH  38  39
ATOM     39  O1  UNL A   1       5.144   1.868 -13.350  0.00  0.00    -0.393 OA
ATOM     40  H21 UNL A   1       5.720   1.395 -12.723  0.00  0.00    +0.209 HD
ENDBRANCH  38  39
ENDBRANCH  37  38
ENDBRANCH  34  37
ENDBRANCH  32  34
ENDBRANCH   4  32
TORSDOF 8
ENDMDL
MODEL 4
REMARK VINA RESULT:    -7.126      1.824      2.655
REMARK INTER + INTRA:         -11.856
REMARK INTER:                 -10.500
REMARK INTRA:                  -1.356
REMARK UNBOUND:                -1.606
REMARK  Name = agan10
REMARK  8 active torsions:
REMARK  status: ('A' for Active; 'I' for Inactive)
REMARK    1  A    between atoms: C1_1  and  C16_22
REMARK    2  A    between atoms: C4_4  and  N2_15
REMARK    3  A    between atoms: C6_6  and  N1_7
REMARK    4  A    between atoms: N2_15  and  S1_16
REMARK    5  A    between atoms: S1_16  and  C14_17
REMARK    6  A    between atoms: C14_17  and  C15_18
REMARK    7  A    between atoms: C15_18  and  O1_19
REMARK    8  A    between atoms: C22_30  and  N4_31
REMARK                            x       y       z     vdW  Elec       q    Type
REMARK                         _______ _______ _______ _____ _____    ______ ____
ROOT
ATOM      1  C1  UNL A   1      -1.307  -0.573 -13.360  0.00  0.00    +0.028 A 
ATOM      2  C2  UNL A   1      -0.017  -0.962 -12.937  0.00  0.00    +0.014 A 
ATOM      3  C3  UNL A   1       1.047  -1.056 -13.835  0.00  0.00    +0.025 A 
ATOM      4  C4  UNL A   1       0.833  -0.774 -15.177  0.00  0.00    +0.050 A 
ATOM      5  C5  UNL A   1      -0.435  -0.388 -15.614  0.00  0.00    +0.048 A 
ATOM      6  C6  UNL A   1      -1.528  -0.279 -14.726  0.00  0.00    +0.041 A 
ENDROOT
BRANCH   1   7
ATOM      7  C16 UNL A   1      -2.365  -0.541 -12.345  0.00  0.00    +0.111 A 
ATOM      8  N3  UNL A   1      -3.427  -1.312 -12.338  0.00  0.00    -0.237 NA
ATOM      9  C17 UNL A   1      -4.243  -1.029 -11.243  0.00  0.00    +0.100 A 
ATOM     10  C18 UNL A   1      -3.747  -0.022 -10.409  0.00  0.00    +0.041 A 
ATOM     11  S2  UNL A   1      -2.241   0.548 -11.023  0.00  0.00    -0.067 S 
ATOM     12  C19 UNL A   1      -4.429   0.412  -9.262  0.00  0.00    +0.017 A 
ATOM     13  C20 UNL A   1      -5.646  -0.189  -8.955  0.00  0.00    +0.003 A 
ATOM     14  C21 UNL A   1      -6.164  -1.190  -9.772  0.00  0.00    +0.025 A 
ATOM     15  C22 UNL A   1      -5.497  -1.644 -10.935  0.00  0.00    +0.057 A 
BRANCH  15  16
ATOM     16  N4  UNL A   1      -6.147  -2.680 -11.679  0.00  0.00    -0.328 N 
ATOM     17  C23 UNL A   1      -7.616  -2.685 -11.579  0.00  0.00    +0.111 C 
ATOM     18  C24 UNL A   1      -8.169  -3.643 -12.622  0.00  0.00    +0.094 C 
ATOM     19  C25 UNL A   1      -7.563  -5.012 -12.405  0.00  0.00    +0.252 C 
ATOM     20  C26 UNL A   1      -6.049  -5.008 -12.393  0.00  0.00    +0.094 C 
ATOM     21  C27 UNL A   1      -5.544  -3.993 -11.381  0.00  0.00    +0.111 C 
ATOM     22  F1  UNL A   1      -8.018  -5.528 -11.231  0.00  0.00    -0.206 F 
ATOM     23  F2  UNL A   1      -7.999  -5.856 -13.378  0.00  0.00    -0.206 F 
ENDBRANCH  15  16
ENDBRANCH   1   7
BRANCH   6  24
ATOM     24  N1  UNL A   1      -2.739   0.112 -15.325  0.00  0.00    -0.329 N 
ATOM     25  C7  UNL A   1      -2.940  -0.243 -16.740  0.00  0.00    +0.105 C 
ATOM     26  C8  UNL A   1      -4.431  -0.109 -17.082  0.00  0.00    +0.026 C 
ATOM     27  C9  UNL A   1      -4.932   1.284 -16.745  0.00  0.00    -0.026 C 
ATOM     28  C10 UNL A   1      -4.613   1.703 -15.322  0.00  0.00    +0.026 C 
ATOM     29  C11 UNL A   1      -3.122   1.504 -15.010  0.00  0.00    +0.105 C 
ATOM     30  C12 UNL A   1      -4.950   2.341 -17.829  0.00  0.00    +0.007 C 
ATOM     31  C13 UNL A   1      -6.242   1.738 -17.350  0.00  0.00    +0.007 C 
ENDBRANCH   6  24
BRANCH   4  32
ATOM     32  N2  UNL A   1       1.912  -0.830 -16.110  0.00  0.00    -0.221 N 
ATOM     33  H16 UNL A   1       1.739  -1.425 -16.924  0.00  0.00    +0.173 HD
BRANCH  32  34
ATOM     34  S1  UNL A   1       2.556   0.643 -16.642  0.00  0.00    +0.045 S 
ATOM     35  O2  UNL A   1       3.984   0.424 -16.743  0.00  0.00    -0.155 OA
ATOM     36  O3  UNL A   1       1.792   1.159 -17.756  0.00  0.00    -0.155 OA
BRANCH  34  37
ATOM     37  C14 UNL A   1       2.267   1.671 -15.220  0.00  0.00    +0.216 C 
BRANCH  37  38
ATOM     38  C15 UNL A   1       3.510   1.725 -14.357  0.00  0.00    +0.180 C 
BRANCH  38  39
ATOM     39  O1  UNL A   1       3.397   2.815 -13.446  0.00  0.00    -0.393 OA
ATOM     40  H21 UNL A   1       2.528   2.737 -13.013  0.00  0.00    +0.209 HD
ENDBRANCH  38  39
ENDBRANCH  37  38
ENDBRANCH  34  37
ENDBRANCH  32  34
ENDBRANCH   4  32
TORSDOF 8
ENDMDL
MODEL 5
REMARK VINA RESULT:    -7.125      3.026      4.298
REMARK INTER + INTRA:         -11.855
REMARK INTER:                 -10.305
REMARK INTRA:                  -1.550
REMARK UNBOUND:                -1.606
REMARK  Name = agan10
REMARK  8 active torsions:
REMARK  status: ('A' for Active; 'I' for Inactive)
REMARK    1  A    between atoms: C1_1  and  C16_22
REMARK    2  A    between atoms: C4_4  and  N2_15
REMARK    3  A    between atoms: C6_6  and  N1_7
REMARK    4  A    between atoms: N2_15  and  S1_16
REMARK    5  A    between atoms: S1_16  and  C14_17
REMARK    6  A    between atoms: C14_17  and  C15_18
REMARK    7  A    between atoms: C15_18  and  O1_19
REMARK    8  A    between atoms: C22_30  and  N4_31
REMARK                            x       y       z     vdW  Elec       q    Type
REMARK                         _______ _______ _______ _____ _____    ______ ____
ROOT
ATOM      1  C1  UNL A   1      -2.096  -0.853 -13.389  0.00  0.00    +0.028 A 
ATOM      2  C2  UNL A   1      -1.014  -1.080 -12.510  0.00  0.00    +0.014 A 
ATOM      3  C3  UNL A   1       0.167  -0.342 -12.603  0.00  0.00    +0.025 A 
ATOM      4  C4  UNL A   1       0.291   0.626 -13.588  0.00  0.00    +0.050 A 
ATOM      5  C5  UNL A   1      -0.768   0.865 -14.466  0.00  0.00    +0.048 A 
ATOM      6  C6  UNL A   1      -1.976   0.138 -14.391  0.00  0.00    +0.041 A 
ENDROOT
BRANCH   1   7
ATOM      7  C16 UNL A   1      -3.279  -1.705 -13.232  0.00  0.00    +0.111 A 
ATOM      8  N3  UNL A   1      -4.068  -1.713 -12.183  0.00  0.00    -0.237 NA
ATOM      9  C17 UNL A   1      -5.097  -2.640 -12.339  0.00  0.00    +0.100 A 
ATOM     10  C18 UNL A   1      -5.068  -3.324 -13.559  0.00  0.00    +0.041 A 
ATOM     11  S2  UNL A   1      -3.732  -2.771 -14.498  0.00  0.00    -0.067 S 
ATOM     12  C19 UNL A   1      -6.013  -4.303 -13.900  0.00  0.00    +0.017 A 
ATOM     13  C20 UNL A   1      -7.012  -4.599 -12.978  0.00  0.00    +0.003 A 
ATOM     14  C21 UNL A   1      -7.061  -3.937 -11.754  0.00  0.00    +0.025 A 
ATOM     15  C22 UNL A   1      -6.119  -2.947 -11.386  0.00  0.00    +0.057 A 
BRANCH  15  16
ATOM     16  N4  UNL A   1      -6.292  -2.349 -10.097  0.00  0.00    -0.328 N 
ATOM     17  C23 UNL A   1      -6.960  -3.206  -9.102  0.00  0.00    +0.111 C 
ATOM     18  C24 UNL A   1      -6.824  -2.557  -7.734  0.00  0.00    +0.094 C 
ATOM     19  C25 UNL A   1      -7.406  -1.161  -7.790  0.00  0.00    +0.252 C 
ATOM     20  C26 UNL A   1      -6.808  -0.300  -8.882  0.00  0.00    +0.094 C 
ATOM     21  C27 UNL A   1      -6.911  -1.016 -10.219  0.00  0.00    +0.111 C 
ATOM     22  F1  UNL A   1      -8.752  -1.238  -7.969  0.00  0.00    -0.206 F 
ATOM     23  F2  UNL A   1      -7.223  -0.550  -6.590  0.00  0.00    -0.206 F 
ENDBRANCH  15  16
ENDBRANCH   1   7
BRANCH   6  24
ATOM     24  N1  UNL A   1      -2.939   0.493 -15.353  0.00  0.00    -0.329 N 
ATOM     25  C7  UNL A   1      -2.453   0.859 -16.694  0.00  0.00    +0.105 C 
ATOM     26  C8  UNL A   1      -3.627   0.807 -17.683  0.00  0.00    +0.026 C 
ATOM     27  C9  UNL A   1      -4.766   1.690 -17.205  0.00  0.00    -0.026 C 
ATOM     28  C10 UNL A   1      -5.185   1.400 -15.776  0.00  0.00    +0.026 C 
ATOM     29  C11 UNL A   1      -3.972   1.413 -14.833  0.00  0.00    +0.105 C 
ATOM     30  C12 UNL A   1      -4.858   3.112 -17.717  0.00  0.00    +0.007 C 
ATOM     31  C13 UNL A   1      -5.836   2.078 -18.201  0.00  0.00    +0.007 C 
ENDBRANCH   6  24
BRANCH   4  32
ATOM     32  N2  UNL A   1       1.476   1.417 -13.682  0.00  0.00    -0.221 N 
ATOM     33  H16 UNL A   1       1.579   2.116 -12.943  0.00  0.00    +0.173 HD
BRANCH  32  34
ATOM     34  S1  UNL A   1       2.946   0.595 -13.860  0.00  0.00    +0.045 S 
ATOM     35  O2  UNL A   1       3.525   0.554 -12.533  0.00  0.00    -0.155 OA
ATOM     36  O3  UNL A   1       2.765  -0.608 -14.641  0.00  0.00    -0.155 OA
BRANCH  34  37
ATOM     37  C14 UNL A   1       3.875   1.770 -14.819  0.00  0.00    +0.216 C 
BRANCH  37  38
ATOM     38  C15 UNL A   1       5.293   1.276 -15.012  0.00  0.00    +0.180 C 
BRANCH  38  39
ATOM     39  O1  UNL A   1       6.044   1.544 -13.831  0.00  0.00    -0.393 OA
ATOM     40  H21 UNL A   1       6.805   2.091 -14.094  0.00  0.00    +0.209 HD
ENDBRANCH  38  39
ENDBRANCH  37  38
ENDBRANCH  34  37
ENDBRANCH  32  34
ENDBRANCH   4  32
TORSDOF 8
ENDMDL
MODEL 6
REMARK VINA RESULT:    -7.071      2.769      4.052
REMARK INTER + INTRA:         -11.777
REMARK INTER:                 -10.723
REMARK INTRA:                  -1.055
REMARK UNBOUND:                -1.606
REMARK  Name = agan10
REMARK  8 active torsions:
REMARK  status: ('A' for Active; 'I' for Inactive)
REMARK    1  A    between atoms: C1_1  and  C16_22
REMARK    2  A    between atoms: C4_4  and  N2_15
REMARK    3  A    between atoms: C6_6  and  N1_7
REMARK    4  A    between atoms: N2_15  and  S1_16
REMARK    5  A    between atoms: S1_16  and  C14_17
REMARK    6  A    between atoms: C14_17  and  C15_18
REMARK    7  A    between atoms: C15_18  and  O1_19
REMARK    8  A    between atoms: C22_30  and  N4_31
REMARK                            x       y       z     vdW  Elec       q    Type
REMARK                         _______ _______ _______ _____ _____    ______ ____
ROOT
ATOM      1  C1  UNL A   1      -1.745  -0.790 -13.612  0.00  0.00    +0.028 A 
ATOM      2  C2  UNL A   1      -0.652  -0.989 -12.739  0.00  0.00    +0.014 A 
ATOM      3  C3  UNL A   1       0.487  -0.185 -12.803  0.00  0.00    +0.025 A 
ATOM      4  C4  UNL A   1       0.556   0.825 -13.752  0.00  0.00    +0.050 A 
ATOM      5  C5  UNL A   1      -0.514   1.036 -14.623  0.00  0.00    +0.048 A 
ATOM      6  C6  UNL A   1      -1.680   0.242 -14.577  0.00  0.00    +0.041 A 
ENDROOT
BRANCH   1   7
ATOM      7  C16 UNL A   1      -2.878  -1.712 -13.488  0.00  0.00    +0.111 A 
ATOM      8  N3  UNL A   1      -3.685  -1.781 -12.455  0.00  0.00    -0.237 NA
ATOM      9  C17 UNL A   1      -4.656  -2.764 -12.643  0.00  0.00    +0.100 A 
ATOM     10  C18 UNL A   1      -4.564  -3.428 -13.870  0.00  0.00    +0.041 A 
ATOM     11  S2  UNL A   1      -3.246  -2.785 -14.777  0.00  0.00    -0.067 S 
ATOM     12  C19 UNL A   1      -5.444  -4.456 -14.241  0.00  0.00    +0.017 A 
ATOM     13  C20 UNL A   1      -6.441  -4.821 -13.342  0.00  0.00    +0.003 A 
ATOM     14  C21 UNL A   1      -6.551  -4.180 -12.112  0.00  0.00    +0.025 A 
ATOM     15  C22 UNL A   1      -5.675  -3.142 -11.713  0.00  0.00    +0.057 A 
BRANCH  15  16
ATOM     16  N4  UNL A   1      -5.906  -2.573 -10.420  0.00  0.00    -0.328 N 
ATOM     17  C23 UNL A   1      -6.829  -3.338  -9.564  0.00  0.00    +0.111 C 
ATOM     18  C24 UNL A   1      -6.759  -2.775  -8.153  0.00  0.00    +0.094 C 
ATOM     19  C25 UNL A   1      -7.087  -1.298  -8.194  0.00  0.00    +0.252 C 
ATOM     20  C26 UNL A   1      -6.220  -0.513  -9.156  0.00  0.00    +0.094 C 
ATOM     21  C27 UNL A   1      -6.273  -1.149 -10.536  0.00  0.00    +0.111 C 
ATOM     22  F1  UNL A   1      -8.394  -1.134  -8.535  0.00  0.00    -0.206 F 
ATOM     23  F2  UNL A   1      -6.957  -0.774  -6.947  0.00  0.00    -0.206 F 
ENDBRANCH  15  16
ENDBRANCH   1   7
BRANCH   6  24
ATOM     24  N1  UNL A   1      -2.661   0.577 -15.528  0.00  0.00    -0.329 N 
ATOM     25  C7  UNL A   1      -2.199   0.955 -16.874  0.00  0.00    +0.105 C 
ATOM     26  C8  UNL A   1      -3.382   0.880 -17.849  0.00  0.00    +0.026 C 
ATOM     27  C9  UNL A   1      -4.535   1.738 -17.357  0.00  0.00    -0.026 C 
ATOM     28  C10 UNL A   1      -4.930   1.437 -15.923  0.00  0.00    +0.026 C 
ATOM     29  C11 UNL A   1      -3.707   1.474 -14.994  0.00  0.00    +0.105 C 
ATOM     30  C12 UNL A   1      -4.662   3.158 -17.865  0.00  0.00    +0.007 C 
ATOM     31  C13 UNL A   1      -5.623   2.104 -18.340  0.00  0.00    +0.007 C 
ENDBRANCH   6  24
BRANCH   4  32
ATOM     32  N2  UNL A   1       1.695   1.683 -13.816  0.00  0.00    -0.221 N 
ATOM     33  H16 UNL A   1       1.768   2.349 -13.042  0.00  0.00    +0.173 HD
BRANCH  32  34
ATOM     34  S1  UNL A   1       3.206   0.952 -14.046  0.00  0.00    +0.045 S 
ATOM     35  O2  UNL A   1       4.130   2.045 -14.269  0.00  0.00    -0.155 OA
ATOM     36  O3  UNL A   1       3.449  -0.045 -13.028  0.00  0.00    -0.155 OA
BRANCH  34  37
ATOM     37  C14 UNL A   1       2.951   0.134 -15.605  0.00  0.00    +0.216 C 
BRANCH  37  38
ATOM     38  C15 UNL A   1       3.927   0.663 -16.634  0.00  0.00    +0.180 C 
BRANCH  38  39
ATOM     39  O1  UNL A   1       4.752  -0.407 -17.086  0.00  0.00    -0.393 OA
ATOM     40  H21 UNL A   1       5.193  -0.104 -17.899  0.00  0.00    +0.209 HD
ENDBRANCH  38  39
ENDBRANCH  37  38
ENDBRANCH  34  37
ENDBRANCH  32  34
ENDBRANCH   4  32
TORSDOF 8
ENDMDL
MODEL 7
REMARK VINA RESULT:    -7.054      5.276      8.735
REMARK INTER + INTRA:         -11.753
REMARK INTER:                  -9.840
REMARK INTRA:                  -1.913
REMARK UNBOUND:                -1.606
REMARK  Name = agan10
REMARK  8 active torsions:
REMARK  status: ('A' for Active; 'I' for Inactive)
REMARK    1  A    between atoms: C1_1  and  C16_22
REMARK    2  A    between atoms: C4_4  and  N2_15
REMARK    3  A    between atoms: C6_6  and  N1_7
REMARK    4  A    between atoms: N2_15  and  S1_16
REMARK    5  A    between atoms: S1_16  and  C14_17
REMARK    6  A    between atoms: C14_17  and  C15_18
REMARK    7  A    between atoms: C15_18  and  O1_19
REMARK    8  A    between atoms: C22_30  and  N4_31
REMARK                            x       y       z     vdW  Elec       q    Type
REMARK                         _______ _______ _______ _____ _____    ______ ____
ROOT
ATOM      1  C1  UNL A   1      -4.244  -3.381 -15.324  0.00  0.00    +0.028 A 
ATOM      2  C2  UNL A   1      -3.790  -4.192 -16.387  0.00  0.00    +0.014 A 
ATOM      3  C3  UNL A   1      -3.927  -5.581 -16.354  0.00  0.00    +0.025 A 
ATOM      4  C4  UNL A   1      -4.510  -6.182 -15.247  0.00  0.00    +0.050 A 
ATOM      5  C5  UNL A   1      -4.965  -5.396 -14.187  0.00  0.00    +0.048 A 
ATOM      6  C6  UNL A   1      -4.844  -3.990 -14.197  0.00  0.00    +0.041 A 
ENDROOT
BRANCH   1   7
ATOM      7  C16 UNL A   1      -4.020  -1.936 -15.440  0.00  0.00    +0.111 A 
ATOM      8  N3  UNL A   1      -2.856  -1.342 -15.321  0.00  0.00    -0.237 NA
ATOM      9  C17 UNL A   1      -2.981   0.038 -15.477  0.00  0.00    +0.100 A 
ATOM     10  C18 UNL A   1      -4.287   0.466 -15.738  0.00  0.00    +0.041 A 
ATOM     11  S2  UNL A   1      -5.341  -0.897 -15.791  0.00  0.00    -0.067 S 
ATOM     12  C19 UNL A   1      -4.618   1.817 -15.916  0.00  0.00    +0.017 A 
ATOM     13  C20 UNL A   1      -3.599   2.760 -15.824  0.00  0.00    +0.003 A 
ATOM     14  C21 UNL A   1      -2.291   2.361 -15.560  0.00  0.00    +0.025 A 
ATOM     15  C22 UNL A   1      -1.931   1.005 -15.374  0.00  0.00    +0.057 A 
BRANCH  15  16
ATOM     16  N4  UNL A   1      -0.550   0.741 -15.110  0.00  0.00    -0.328 N 
ATOM     17  C23 UNL A   1      -0.138   0.945 -13.711  0.00  0.00    +0.111 C 
ATOM     18  C24 UNL A   1       1.257   0.369 -13.528  0.00  0.00    +0.094 C 
ATOM     19  C25 UNL A   1       2.196   1.025 -14.517  0.00  0.00    +0.252 C 
ATOM     20  C26 UNL A   1       1.730   0.922 -15.953  0.00  0.00    +0.094 C 
ATOM     21  C27 UNL A   1       0.310   1.452 -16.075  0.00  0.00    +0.111 C 
ATOM     22  F1  UNL A   1       2.352   2.337 -14.191  0.00  0.00    -0.206 F 
ATOM     23  F2  UNL A   1       3.429   0.464 -14.406  0.00  0.00    -0.206 F 
ENDBRANCH  15  16
ENDBRANCH   1   7
BRANCH   6  24
ATOM     24  N1  UNL A   1      -5.343  -3.346 -13.050  0.00  0.00    -0.329 N 
ATOM     25  C7  UNL A   1      -4.490  -3.344 -11.850  0.00  0.00    +0.105 C 
ATOM     26  C8  UNL A   1      -5.001  -2.275 -10.874  0.00  0.00    +0.026 C 
ATOM     27  C9  UNL A   1      -6.469  -2.501 -10.556  0.00  0.00    -0.026 C 
ATOM     28  C10 UNL A   1      -7.333  -2.631 -11.797  0.00  0.00    +0.026 C 
ATOM     29  C11 UNL A   1      -6.755  -3.674 -12.765  0.00  0.00    +0.105 C 
ATOM     30  C12 UNL A   1      -6.839  -3.298  -9.324  0.00  0.00    +0.007 C 
ATOM     31  C13 UNL A   1      -7.052  -1.810  -9.344  0.00  0.00    +0.007 C 
ENDBRANCH   6  24
BRANCH   4  32
ATOM     32  N2  UNL A   1      -4.692  -7.597 -15.204  0.00  0.00    -0.221 N 
ATOM     33  H16 UNL A   1      -5.263  -7.975 -15.963  0.00  0.00    +0.173 HD
BRANCH  32  34
ATOM     34  S1  UNL A   1      -3.304  -8.554 -15.041  0.00  0.00    +0.045 S 
ATOM     35  O2  UNL A   1      -2.947  -8.943 -16.390  0.00  0.00    -0.155 OA
ATOM     36  O3  UNL A   1      -2.349  -7.920 -14.161  0.00  0.00    -0.155 OA
BRANCH  34  37
ATOM     37  C14 UNL A   1      -3.976  -9.986 -14.226  0.00  0.00    +0.216 C 
BRANCH  37  38
ATOM     38  C15 UNL A   1      -2.938 -11.087 -14.173  0.00  0.00    +0.180 C 
BRANCH  38  39
ATOM     39  O1  UNL A   1      -1.664 -10.513 -13.893  0.00  0.00    -0.393 OA
ATOM     40  H21 UNL A   1      -1.818  -9.740 -13.323  0.00  0.00    +0.209 HD
ENDBRANCH  38  39
ENDBRANCH  37  38
ENDBRANCH  34  37
ENDBRANCH  32  34
ENDBRANCH   4  32
TORSDOF 8
ENDMDL
MODEL 8
REMARK VINA RESULT:    -6.995      3.006      4.489
REMARK INTER + INTRA:         -11.667
REMARK INTER:                 -10.203
REMARK INTRA:                  -1.464
REMARK UNBOUND:                -1.606
REMARK  Name = agan10
REMARK  8 active torsions:
REMARK  status: ('A' for Active; 'I' for Inactive)
REMARK    1  A    between atoms: C1_1  and  C16_22
REMARK    2  A    between atoms: C4_4  and  N2_15
REMARK    3  A    between atoms: C6_6  and  N1_7
REMARK    4  A    between atoms: N2_15  and  S1_16
REMARK    5  A    between atoms: S1_16  and  C14_17
REMARK    6  A    between atoms: C14_17  and  C15_18
REMARK    7  A    between atoms: C15_18  and  O1_19
REMARK    8  A    between atoms: C22_30  and  N4_31
REMARK                            x       y       z     vdW  Elec       q    Type
REMARK                         _______ _______ _______ _____ _____    ______ ____
ROOT
ATOM      1  C1  UNL A   1      -2.137  -0.936 -13.450  0.00  0.00    +0.028 A 
ATOM      2  C2  UNL A   1      -0.908  -1.155 -12.789  0.00  0.00    +0.014 A 
ATOM      3  C3  UNL A   1       0.223  -0.390 -13.079  0.00  0.00    +0.025 A 
ATOM      4  C4  UNL A   1       0.145   0.601 -14.048  0.00  0.00    +0.050 A 
ATOM      5  C5  UNL A   1      -1.061   0.833 -14.711  0.00  0.00    +0.048 A 
ATOM      6  C6  UNL A   1      -2.221   0.077 -14.434  0.00  0.00    +0.041 A 
ENDROOT
BRANCH   1   7
ATOM      7  C16 UNL A   1      -3.254  -1.818 -13.099  0.00  0.00    +0.111 A 
ATOM      8  N3  UNL A   1      -3.956  -1.742 -11.992  0.00  0.00    -0.237 NA
ATOM      9  C17 UNL A   1      -4.942  -2.727 -11.957  0.00  0.00    +0.100 A 
ATOM     10  C18 UNL A   1      -4.971  -3.544 -13.091  0.00  0.00    +0.041 A 
ATOM     11  S2  UNL A   1      -3.747  -3.042 -14.196  0.00  0.00    -0.067 S 
ATOM     12  C19 UNL A   1      -5.885  -4.599 -13.240  0.00  0.00    +0.017 A 
ATOM     13  C20 UNL A   1      -6.790  -4.832 -12.209  0.00  0.00    +0.003 A 
ATOM     14  C21 UNL A   1      -6.778  -4.036 -11.067  0.00  0.00    +0.025 A 
ATOM     15  C22 UNL A   1      -5.866  -2.968 -10.892  0.00  0.00    +0.057 A 
BRANCH  15  16
ATOM     16  N4  UNL A   1      -5.969  -2.234  -9.667  0.00  0.00    -0.328 N 
ATOM     17  C23 UNL A   1      -6.765  -2.893  -8.617  0.00  0.00    +0.111 C 
ATOM     18  C24 UNL A   1      -6.555  -2.144  -7.310  0.00  0.00    +0.094 C 
ATOM     19  C25 UNL A   1      -6.933  -0.692  -7.507  0.00  0.00    +0.252 C 
ATOM     20  C26 UNL A   1      -6.206  -0.029  -8.657  0.00  0.00    +0.094 C 
ATOM     21  C27 UNL A   1      -6.393  -0.845  -9.926  0.00  0.00    +0.111 C 
ATOM     22  F1  UNL A   1      -8.275  -0.597  -7.714  0.00  0.00    -0.206 F 
ATOM     23  F2  UNL A   1      -6.682  -0.003  -6.363  0.00  0.00    -0.206 F 
ENDBRANCH  15  16
ENDBRANCH   1   7
BRANCH   6  24
ATOM     24  N1  UNL A   1      -3.351   0.429 -15.195  0.00  0.00    -0.329 N 
ATOM     25  C7  UNL A   1      -3.119   1.146 -16.460  0.00  0.00    +0.105 C 
ATOM     26  C8  UNL A   1      -4.390   1.072 -17.317  0.00  0.00    +0.026 C 
ATOM     27  C9  UNL A   1      -5.585   1.605 -16.546  0.00  0.00    -0.026 C 
ATOM     28  C10 UNL A   1      -5.752   0.955 -15.185  0.00  0.00    +0.026 C 
ATOM     29  C11 UNL A   1      -4.442   1.008 -14.384  0.00  0.00    +0.105 C 
ATOM     30  C12 UNL A   1      -5.980   3.056 -16.715  0.00  0.00    +0.007 C 
ATOM     31  C13 UNL A   1      -6.829   1.975 -17.322  0.00  0.00    +0.007 C 
ENDBRANCH   6  24
BRANCH   4  32
ATOM     32  N2  UNL A   1       1.277   1.420 -14.338  0.00  0.00    -0.221 N 
ATOM     33  H16 UNL A   1       1.858   1.644 -13.527  0.00  0.00    +0.173 HD
BRANCH  32  34
ATOM     34  S1  UNL A   1       2.286   0.929 -15.607  0.00  0.00    +0.045 S 
ATOM     35  O2  UNL A   1       2.314  -0.517 -15.538  0.00  0.00    -0.155 OA
ATOM     36  O3  UNL A   1       1.937   1.618 -16.830  0.00  0.00    -0.155 OA
BRANCH  34  37
ATOM     37  C14 UNL A   1       3.861   1.528 -15.037  0.00  0.00    +0.216 C 
BRANCH  37  38
ATOM     38  C15 UNL A   1       3.869   1.608 -13.525  0.00  0.00    +0.180 C 
BRANCH  38  39
ATOM     39  O1  UNL A   1       3.382   2.885 -13.124  0.00  0.00    -0.393 OA
ATOM     40  H21 UNL A   1       2.429   2.787 -12.953  0.00  0.00    +0.209 HD
ENDBRANCH  38  39
ENDBRANCH  37  38
ENDBRANCH  34  37
ENDBRANCH  32  34
ENDBRANCH   4  32
TORSDOF 8
ENDMDL
MODEL 9
REMARK VINA RESULT:    -6.906      2.421      3.515
REMARK INTER + INTRA:         -11.540
REMARK INTER:                  -9.421
REMARK INTRA:                  -2.119
REMARK UNBOUND:                -1.606
REMARK  Name = agan10
REMARK  8 active torsions:
REMARK  status: ('A' for Active; 'I' for Inactive)
REMARK    1  A    between atoms: C1_1  and  C16_22
REMARK    2  A    between atoms: C4_4  and  N2_15
REMARK    3  A    between atoms: C6_6  and  N1_7
REMARK    4  A    between atoms: N2_15  and  S1_16
REMARK    5  A    between atoms: S1_16  and  C14_17
REMARK    6  A    between atoms: C14_17  and  C15_18
REMARK    7  A    between atoms: C15_18  and  O1_19
REMARK    8  A    between atoms: C22_30  and  N4_31
REMARK                            x       y       z     vdW  Elec       q    Type
REMARK                         _______ _______ _______ _____ _____    ______ ____
ROOT
ATOM      1  C1  UNL A   1      -2.171  -1.011 -13.344  0.00  0.00    +0.028 A 
ATOM      2  C2  UNL A   1      -1.094  -1.004 -12.430  0.00  0.00    +0.014 A 
ATOM      3  C3  UNL A   1       0.010  -0.169 -12.611  0.00  0.00    +0.025 A 
ATOM      4  C4  UNL A   1       0.060   0.665 -13.719  0.00  0.00    +0.050 A 
ATOM      5  C5  UNL A   1      -0.995   0.672 -14.633  0.00  0.00    +0.048 A 
ATOM      6  C6  UNL A   1      -2.126  -0.158 -14.472  0.00  0.00    +0.041 A 
ENDROOT
BRANCH   1   7
ATOM      7  C16 UNL A   1      -3.265  -1.951 -13.084  0.00  0.00    +0.111 A 
ATOM      8  N3  UNL A   1      -3.538  -3.011 -13.809  0.00  0.00    -0.237 NA
ATOM      9  C17 UNL A   1      -4.643  -3.692 -13.302  0.00  0.00    +0.100 A 
ATOM     10  C18 UNL A   1      -5.190  -3.116 -12.151  0.00  0.00    +0.041 A 
ATOM     11  S2  UNL A   1      -4.282  -1.715 -11.721  0.00  0.00    -0.067 S 
ATOM     12  C19 UNL A   1      -6.312  -3.648 -11.499  0.00  0.00    +0.017 A 
ATOM     13  C20 UNL A   1      -6.896  -4.794 -12.030  0.00  0.00    +0.003 A 
ATOM     14  C21 UNL A   1      -6.375  -5.385 -13.178  0.00  0.00    +0.025 A 
ATOM     15  C22 UNL A   1      -5.246  -4.866 -13.855  0.00  0.00    +0.057 A 
BRANCH  15  16
ATOM     16  N4  UNL A   1      -4.820  -5.577 -15.022  0.00  0.00    -0.328 N 
ATOM     17  C23 UNL A   1      -5.691  -5.413 -16.199  0.00  0.00    +0.111 C 
ATOM     18  C24 UNL A   1      -4.977  -5.984 -17.413  0.00  0.00    +0.094 C 
ATOM     19  C25 UNL A   1      -4.623  -7.431 -17.143  0.00  0.00    +0.252 C 
ATOM     20  C26 UNL A   1      -3.822  -7.631 -15.875  0.00  0.00    +0.094 C 
ATOM     21  C27 UNL A   1      -4.545  -6.990 -14.700  0.00  0.00    +0.111 C 
ATOM     22  F1  UNL A   1      -5.764  -8.170 -17.071  0.00  0.00    -0.206 F 
ATOM     23  F2  UNL A   1      -3.923  -7.927 -18.197  0.00  0.00    -0.206 F 
ENDBRANCH  15  16
ENDBRANCH   1   7
BRANCH   6  24
ATOM     24  N1  UNL A   1      -3.095  -0.038 -15.484  0.00  0.00    -0.329 N 
ATOM     25  C7  UNL A   1      -2.694  -0.406 -16.852  0.00  0.00    +0.105 C 
ATOM     26  C8  UNL A   1      -3.954  -0.604 -17.707  0.00  0.00    +0.026 C 
ATOM     27  C9  UNL A   1      -4.831   0.635 -17.660  0.00  0.00    -0.026 C 
ATOM     28  C10 UNL A   1      -5.141   1.092 -16.247  0.00  0.00    +0.026 C 
ATOM     29  C11 UNL A   1      -3.855   1.227 -15.416  0.00  0.00    +0.105 C 
ATOM     30  C12 UNL A   1      -4.686   1.679 -18.747  0.00  0.00    +0.007 C 
ATOM     31  C13 UNL A   1      -5.901   0.794 -18.717  0.00  0.00    +0.007 C 
ENDBRANCH   6  24
BRANCH   4  32
ATOM     32  N2  UNL A   1       1.162   1.552 -13.908  0.00  0.00    -0.221 N 
ATOM     33  H16 UNL A   1       1.610   1.863 -13.043  0.00  0.00    +0.173 HD
BRANCH  32  34
ATOM     34  S1  UNL A   1       2.364   1.076 -15.001  0.00  0.00    +0.045 S 
ATOM     35  O2  UNL A   1       2.547  -0.343 -14.777  0.00  0.00    -0.155 OA
ATOM     36  O3  UNL A   1       2.091   1.602 -16.320  0.00  0.00    -0.155 OA
BRANCH  34  37
ATOM     37  C14 UNL A   1       3.782   1.915 -14.330  0.00  0.00    +0.216 C 
BRANCH  37  38
ATOM     38  C15 UNL A   1       4.363   1.116 -13.183  0.00  0.00    +0.180 C 
BRANCH  38  39
ATOM     39  O1  UNL A   1       3.351   0.904 -12.203  0.00  0.00    -0.393 OA
ATOM     40  H21 UNL A   1       3.778   0.975 -11.331  0.00  0.00    +0.209 HD
ENDBRANCH  38  39
ENDBRANCH  37  38
ENDBRANCH  34  37
ENDBRANCH  32  34
ENDBRANCH   4  32
TORSDOF 8
ENDMDL
