MODEL 1
REMARK VINA RESULT:    -8.295      0.000      0.000
REMARK INTER + INTRA:         -11.283
REMARK INTER:                 -11.205
REMARK INTRA:                  -0.078
REMARK UNBOUND:                -0.078
REMARK  Name = agan3
REMARK  10 active torsions:
REMARK  status: ('A' for Active; 'I' for Inactive)
REMARK    1  A    between atoms: C4_4  and  N3_33
REMARK    2  A    between atoms: C9_10  and  C10_11
REMARK    3  A    between atoms: C12_13  and  S1_17
REMARK    4  A    between atoms: S1_17  and  N2_18
REMARK    5  A    between atoms: N2_18  and  C16_19
REMARK    6  A    between atoms: C16_19  and  C17_20
REMARK    7  A    between atoms: C16_19  and  C18_21
REMARK    8  A    between atoms: C16_19  and  C19_22
REMARK    9  A    between atoms: N3_33  and  S2_34
REMARK   10  A    between atoms: S2_34  and  C27_35
REMARK                            x       y       z     vdW  Elec       q    Type
REMARK                         _______ _______ _______ _____ _____    ______ ____
ROOT
ATOM      1  C1  UNL A   1      -3.847  -0.263 -11.117  0.00  0.00    +0.041 A 
ATOM      2  C2  UNL A   1      -3.412   0.147  -9.865  0.00  0.00    +0.026 A 
ATOM      3  C3  UNL A   1      -4.357   0.324  -8.850  0.00  0.00    +0.026 A 
ATOM      4  C4  UNL A   1      -5.712   0.079  -9.095  0.00  0.00    +0.048 A 
ATOM      5  C5  UNL A   1      -6.147  -0.325 -10.357  0.00  0.00    +0.030 A 
ATOM      6  C6  UNL A   1      -5.202  -0.495 -11.365  0.00  0.00    -0.017 A 
ATOM      7  C7  UNL A   1      -5.449  -0.873 -12.811  0.00  0.00    +0.014 C 
ATOM      8  C8  UNL A   1      -3.989  -0.971 -13.339  0.00  0.00    +0.125 C 
ATOM      9  N1  UNL A   1      -3.086  -0.499 -12.272  0.00  0.00    -0.266 N 
ATOM     10  C9  UNL A   1      -1.717  -0.315 -12.386  0.00  0.00    +0.251 C 
ATOM     11  O3  UNL A   1      -0.958   0.121 -11.528  0.00  0.00    -0.270 OA
ATOM     12  C20 UNL A   1      -6.186  -2.222 -12.932  0.00  0.00    +0.013 C 
ATOM     13  C21 UNL A   1      -6.501  -2.578 -14.385  0.00  0.00    +0.008 C 
ATOM     14  C22 UNL A   1      -7.268  -1.460 -15.048  0.00  0.00    -0.029 C 
ATOM     15  C23 UNL A   1      -6.577  -0.118 -14.981  0.00  0.00    +0.008 C 
ATOM     16  C24 UNL A   1      -6.239   0.242 -13.532  0.00  0.00    +0.013 C 
ATOM     17  C25 UNL A   1      -8.064  -1.785 -16.292  0.00  0.00    +0.007 C 
ATOM     18  C26 UNL A   1      -8.781  -1.495 -15.002  0.00  0.00    +0.007 C 
ENDROOT
BRANCH  10  19
ATOM     19  C10 UNL A   1      -1.113  -0.675 -13.684  0.00  0.00    +0.039 A 
ATOM     20  C11 UNL A   1      -0.409   0.288 -14.409  0.00  0.00    +0.041 A 
ATOM     21  C12 UNL A   1       0.181  -0.085 -15.617  0.00  0.00    +0.106 A 
ATOM     22  C13 UNL A   1       0.055  -1.391 -16.107  0.00  0.00    +0.028 A 
ATOM     23  C14 UNL A   1      -0.676  -2.334 -15.382  0.00  0.00    +0.003 A 
ATOM     24  C15 UNL A   1      -1.264  -1.978 -14.169  0.00  0.00    +0.013 A 
BRANCH  21  25
ATOM     25  S1  UNL A   1       1.119   1.112 -16.528  0.00  0.00    +0.059 S 
ATOM     26  O1  UNL A   1       0.203   2.175 -16.878  0.00  0.00    -0.153 OA
ATOM     27  O2  UNL A   1       1.910   0.428 -17.525  0.00  0.00    -0.153 OA
BRANCH  25  28
ATOM     28  N2  UNL A   1       2.144   1.759 -15.368  0.00  0.00    -0.185 NA
ATOM     29  H10 UNL A   1       2.212   2.773 -15.471  0.00  0.00    +0.149 HD
BRANCH  28  30
ATOM     30  C16 UNL A   1       3.318   1.065 -14.794  0.00  0.00    +0.032 C 
ATOM     31  C17 UNL A   1       4.432   0.977 -15.841  0.00  0.00    +0.029 C 
ATOM     32  C18 UNL A   1       3.805   1.947 -13.628  0.00  0.00    +0.029 C 
ATOM     33  C19 UNL A   1       2.973  -0.319 -14.239  0.00  0.00    +0.029 C 
ENDBRANCH  28  30
ENDBRANCH  25  28
ENDBRANCH  21  25
ENDBRANCH  10  19
BRANCH   4  34
ATOM     34  N3  UNL A   1      -6.658   0.312  -8.055  0.00  0.00    -0.221 N 
ATOM     35  H32 UNL A   1      -6.455   1.116  -7.459  0.00  0.00    +0.173 HD
BRANCH  34  36
ATOM     36  S2  UNL A   1      -7.053  -1.007  -7.067  0.00  0.00    +0.040 S 
ATOM     37  C27 UNL A   1      -8.820  -1.086  -7.266  0.00  0.00    +0.218 C 
ATOM     38  O4  UNL A   1      -6.784  -0.561  -5.716  0.00  0.00    -0.155 OA
ATOM     39  O5  UNL A   1      -6.456  -2.217  -7.585  0.00  0.00    -0.155 OA
ENDBRANCH  34  36
ENDBRANCH   4  34
TORSDOF 6
ENDMDL
MODEL 2
REMARK VINA RESULT:    -8.164      2.537      3.624
REMARK INTER + INTRA:         -11.106
REMARK INTER:                 -10.690
REMARK INTRA:                  -0.416
REMARK UNBOUND:                -0.078
REMARK  Name = agan3
REMARK  10 active torsions:
REMARK  status: ('A' for Active; 'I' for Inactive)
REMARK    1  A    between atoms: C4_4  and  N3_33
REMARK    2  A    between atoms: C9_10  and  C10_11
REMARK    3  A    between atoms: C12_13  and  S1_17
REMARK    4  A    between atoms: S1_17  and  N2_18
REMARK    5  A    between atoms: N2_18  and  C16_19
REMARK    6  A    between atoms: C16_19  and  C17_20
REMARK    7  A    between atoms: C16_19  and  C18_21
REMARK    8  A    between atoms: C16_19  and  C19_22
REMARK    9  A    between atoms: N3_33  and  S2_34
REMARK   10  A    between atoms: S2_34  and  C27_35
REMARK                            x       y       z     vdW  Elec       q    Type
REMARK                         _______ _______ _______ _____ _____    ______ ____
ROOT
ATOM      1  C1  UNL A   1      -4.602  -0.496 -10.081  0.00  0.00    +0.041 A 
ATOM      2  C2  UNL A   1      -4.716   0.252  -8.919  0.00  0.00    +0.026 A 
ATOM      3  C3  UNL A   1      -5.786  -0.004  -8.057  0.00  0.00    +0.026 A 
ATOM      4  C4  UNL A   1      -6.713  -1.007  -8.360  0.00  0.00    +0.048 A 
ATOM      5  C5  UNL A   1      -6.600  -1.753  -9.534  0.00  0.00    +0.030 A 
ATOM      6  C6  UNL A   1      -5.535  -1.488 -10.390  0.00  0.00    -0.017 A 
ATOM      7  C7  UNL A   1      -5.246  -2.130 -11.731  0.00  0.00    +0.014 C 
ATOM      8  C8  UNL A   1      -3.893  -1.452 -12.093  0.00  0.00    +0.125 C 
ATOM      9  N1  UNL A   1      -3.622  -0.411 -11.083  0.00  0.00    -0.266 N 
ATOM     10  C9  UNL A   1      -2.579   0.501 -11.113  0.00  0.00    +0.251 C 
ATOM     11  O3  UNL A   1      -2.365   1.402 -10.310  0.00  0.00    -0.270 OA
ATOM     12  C20 UNL A   1      -5.096  -3.661 -11.613  0.00  0.00    +0.013 C 
ATOM     13  C21 UNL A   1      -4.872  -4.325 -12.972  0.00  0.00    +0.008 C 
ATOM     14  C22 UNL A   1      -5.972  -3.943 -13.933  0.00  0.00    -0.029 C 
ATOM     15  C23 UNL A   1      -6.144  -2.452 -14.106  0.00  0.00    +0.008 C 
ATOM     16  C24 UNL A   1      -6.351  -1.772 -12.751  0.00  0.00    +0.013 C 
ATOM     17  C25 UNL A   1      -6.200  -4.827 -15.139  0.00  0.00    +0.007 C 
ATOM     18  C26 UNL A   1      -7.199  -4.825 -14.014  0.00  0.00    +0.007 C 
ENDROOT
BRANCH  10  19
ATOM     19  C10 UNL A   1      -1.633   0.378 -12.239  0.00  0.00    +0.039 A 
ATOM     20  C11 UNL A   1      -1.948   0.952 -13.472  0.00  0.00    +0.041 A 
ATOM     21  C12 UNL A   1      -1.023   0.850 -14.512  0.00  0.00    +0.106 A 
ATOM     22  C13 UNL A   1       0.188   0.170 -14.335  0.00  0.00    +0.028 A 
ATOM     23  C14 UNL A   1       0.476  -0.422 -13.103  0.00  0.00    +0.003 A 
ATOM     24  C15 UNL A   1      -0.436  -0.321 -12.052  0.00  0.00    +0.013 A 
BRANCH  21  25
ATOM     25  S1  UNL A   1      -1.386   1.613 -16.070  0.00  0.00    +0.059 S 
ATOM     26  O1  UNL A   1      -2.249   0.700 -16.787  0.00  0.00    -0.153 OA
ATOM     27  O2  UNL A   1      -0.158   2.112 -16.645  0.00  0.00    -0.153 OA
BRANCH  25  28
ATOM     28  N2  UNL A   1      -2.356   2.914 -15.642  0.00  0.00    -0.185 NA
ATOM     29  H10 UNL A   1      -2.559   2.899 -14.641  0.00  0.00    +0.149 HD
BRANCH  28  30
ATOM     30  C16 UNL A   1      -3.371   3.539 -16.520  0.00  0.00    +0.032 C 
ATOM     31  C17 UNL A   1      -4.657   2.708 -16.501  0.00  0.00    +0.029 C 
ATOM     32  C18 UNL A   1      -3.668   4.921 -15.908  0.00  0.00    +0.029 C 
ATOM     33  C19 UNL A   1      -2.868   3.744 -17.950  0.00  0.00    +0.029 C 
ENDBRANCH  28  30
ENDBRANCH  25  28
ENDBRANCH  21  25
ENDBRANCH  10  19
BRANCH   4  34
ATOM     34  N3  UNL A   1      -7.820  -1.216  -7.486  0.00  0.00    -0.221 N 
ATOM     35  H32 UNL A   1      -7.745  -2.040  -6.886  0.00  0.00    +0.173 HD
BRANCH  34  36
ATOM     36  S2  UNL A   1      -9.363  -1.194  -8.183  0.00  0.00    +0.040 S 
ATOM     37  C27 UNL A   1      -9.325   0.341  -9.085  0.00  0.00    +0.218 C 
ATOM     38  O4  UNL A   1     -10.278  -1.027  -7.073  0.00  0.00    -0.155 OA
ATOM     39  O5  UNL A   1      -9.510  -2.293  -9.110  0.00  0.00    -0.155 OA
ENDBRANCH  34  36
ENDBRANCH   4  34
TORSDOF 6
ENDMDL
MODEL 3
REMARK VINA RESULT:    -8.108      4.765      8.184
REMARK INTER + INTRA:         -11.030
REMARK INTER:                 -10.156
REMARK INTRA:                  -0.875
REMARK UNBOUND:                -0.078
REMARK  Name = agan3
REMARK  10 active torsions:
REMARK  status: ('A' for Active; 'I' for Inactive)
REMARK    1  A    between atoms: C4_4  and  N3_33
REMARK    2  A    between atoms: C9_10  and  C10_11
REMARK    3  A    between atoms: C12_13  and  S1_17
REMARK    4  A    between atoms: S1_17  and  N2_18
REMARK    5  A    between atoms: N2_18  and  C16_19
REMARK    6  A    between atoms: C16_19  and  C17_20
REMARK    7  A    between atoms: C16_19  and  C18_21
REMARK    8  A    between atoms: C16_19  and  C19_22
REMARK    9  A    between atoms: N3_33  and  S2_34
REMARK   10  A    between atoms: S2_34  and  C27_35
REMARK                            x       y       z     vdW  Elec       q    Type
REMARK                         _______ _______ _______ _____ _____    ______ ____
ROOT
ATOM      1  C1  UNL A   1       0.684  -0.185 -16.061  0.00  0.00    +0.041 A 
ATOM      2  C2  UNL A   1       2.013   0.011 -16.410  0.00  0.00    +0.026 A 
ATOM      3  C3  UNL A   1       2.974   0.062 -15.396  0.00  0.00    +0.026 A 
ATOM      4  C4  UNL A   1       2.598  -0.096 -14.058  0.00  0.00    +0.048 A 
ATOM      5  C5  UNL A   1       1.261  -0.284 -13.709  0.00  0.00    +0.030 A 
ATOM      6  C6  UNL A   1       0.308  -0.329 -14.723  0.00  0.00    -0.017 A 
ATOM      7  C7  UNL A   1      -1.192  -0.469 -14.577  0.00  0.00    +0.014 C 
ATOM      8  C8  UNL A   1      -1.626  -0.536 -16.069  0.00  0.00    +0.125 C 
ATOM      9  N1  UNL A   1      -0.437  -0.265 -16.900  0.00  0.00    -0.266 N 
ATOM     10  C9  UNL A   1      -0.424  -0.114 -18.278  0.00  0.00    +0.251 C 
ATOM     11  O3  UNL A   1       0.543   0.158 -18.980  0.00  0.00    -0.270 OA
ATOM     12  C20 UNL A   1      -1.575  -1.757 -13.819  0.00  0.00    +0.013 C 
ATOM     13  C21 UNL A   1      -3.085  -1.873 -13.606  0.00  0.00    +0.008 C 
ATOM     14  C22 UNL A   1      -3.617  -0.640 -12.916  0.00  0.00    -0.029 C 
ATOM     15  C23 UNL A   1      -3.292   0.650 -13.632  0.00  0.00    +0.008 C 
ATOM     16  C24 UNL A   1      -1.784   0.771 -13.868  0.00  0.00    +0.013 C 
ATOM     17  C25 UNL A   1      -4.950  -0.740 -12.209  0.00  0.00    +0.007 C 
ATOM     18  C26 UNL A   1      -3.683  -0.629 -11.405  0.00  0.00    +0.007 C 
ENDROOT
BRANCH  10  19
ATOM     19  C10 UNL A   1      -1.716  -0.289 -18.968  0.00  0.00    +0.039 A 
ATOM     20  C11 UNL A   1      -2.141  -1.569 -19.328  0.00  0.00    +0.041 A 
ATOM     21  C12 UNL A   1      -3.382  -1.712 -19.950  0.00  0.00    +0.106 A 
ATOM     22  C13 UNL A   1      -4.180  -0.596 -20.228  0.00  0.00    +0.028 A 
ATOM     23  C14 UNL A   1      -3.729   0.681 -19.886  0.00  0.00    +0.003 A 
ATOM     24  C15 UNL A   1      -2.494   0.838 -19.256  0.00  0.00    +0.013 A 
BRANCH  21  25
ATOM     25  S1  UNL A   1      -3.956  -3.335 -20.372  0.00  0.00    +0.059 S 
ATOM     26  O1  UNL A   1      -3.108  -3.808 -21.443  0.00  0.00    -0.153 OA
ATOM     27  O2  UNL A   1      -5.396  -3.305 -20.494  0.00  0.00    -0.153 OA
BRANCH  25  28
ATOM     28  N2  UNL A   1      -3.542  -4.248 -19.027  0.00  0.00    -0.185 NA
ATOM     29  H10 UNL A   1      -3.121  -5.135 -19.309  0.00  0.00    +0.149 HD
BRANCH  28  30
ATOM     30  C16 UNL A   1      -4.266  -4.233 -17.737  0.00  0.00    +0.032 C 
ATOM     31  C17 UNL A   1      -4.924  -5.595 -17.494  0.00  0.00    +0.029 C 
ATOM     32  C18 UNL A   1      -3.198  -4.001 -16.652  0.00  0.00    +0.029 C 
ATOM     33  C19 UNL A   1      -5.294  -3.103 -17.650  0.00  0.00    +0.029 C 
ENDBRANCH  28  30
ENDBRANCH  25  28
ENDBRANCH  21  25
ENDBRANCH  10  19
BRANCH   4  34
ATOM     34  N3  UNL A   1       3.593   0.006 -13.042  0.00  0.00    -0.221 N 
ATOM     35  H32 UNL A   1       3.389  -0.512 -12.185  0.00  0.00    +0.173 HD
BRANCH  34  36
ATOM     36  S2  UNL A   1       4.105   1.565 -12.622  0.00  0.00    +0.040 S 
ATOM     37  C27 UNL A   1       5.797   1.545 -13.172  0.00  0.00    +0.218 C 
ATOM     38  O4  UNL A   1       4.115   1.583 -11.174  0.00  0.00    -0.155 OA
ATOM     39  O5  UNL A   1       3.366   2.554 -13.374  0.00  0.00    -0.155 OA
ENDBRANCH  34  36
ENDBRANCH   4  34
TORSDOF 6
ENDMDL
MODEL 4
REMARK VINA RESULT:    -7.796      2.363      3.520
REMARK INTER + INTRA:         -10.609
REMARK INTER:                 -10.218
REMARK INTRA:                  -0.391
REMARK UNBOUND:                -0.078
REMARK  Name = agan3
REMARK  10 active torsions:
REMARK  status: ('A' for Active; 'I' for Inactive)
REMARK    1  A    between atoms: C4_4  and  N3_33
REMARK    2  A    between atoms: C9_10  and  C10_11
REMARK    3  A    between atoms: C12_13  and  S1_17
REMARK    4  A    between atoms: S1_17  and  N2_18
REMARK    5  A    between atoms: N2_18  and  C16_19
REMARK    6  A    between atoms: C16_19  and  C17_20
REMARK    7  A    between atoms: C16_19  and  C18_21
REMARK    8  A    between atoms: C16_19  and  C19_22
REMARK    9  A    between atoms: N3_33  and  S2_34
REMARK   10  A    between atoms: S2_34  and  C27_35
REMARK                            x       y       z     vdW  Elec       q    Type
REMARK                         _______ _______ _______ _____ _____    ______ ____
ROOT
ATOM      1  C1  UNL A   1      -4.572  -0.512 -10.132  0.00  0.00    +0.041 A 
ATOM      2  C2  UNL A   1      -4.677   0.229  -8.964  0.00  0.00    +0.026 A 
ATOM      3  C3  UNL A   1      -5.747  -0.025  -8.101  0.00  0.00    +0.026 A 
ATOM      4  C4  UNL A   1      -6.684  -1.018  -8.409  0.00  0.00    +0.048 A 
ATOM      5  C5  UNL A   1      -6.580  -1.756  -9.588  0.00  0.00    +0.030 A 
ATOM      6  C6  UNL A   1      -5.514  -1.495 -10.445  0.00  0.00    -0.017 A 
ATOM      7  C7  UNL A   1      -5.234  -2.130 -11.791  0.00  0.00    +0.014 C 
ATOM      8  C8  UNL A   1      -3.877  -1.460 -12.152  0.00  0.00    +0.125 C 
ATOM      9  N1  UNL A   1      -3.595  -0.429 -11.135  0.00  0.00    -0.266 N 
ATOM     10  C9  UNL A   1      -2.544   0.475 -11.161  0.00  0.00    +0.251 C 
ATOM     11  O3  UNL A   1      -2.320   1.368 -10.353  0.00  0.00    -0.270 OA
ATOM     12  C20 UNL A   1      -5.096  -3.663 -11.684  0.00  0.00    +0.013 C 
ATOM     13  C21 UNL A   1      -4.882  -4.319 -13.048  0.00  0.00    +0.008 C 
ATOM     14  C22 UNL A   1      -5.980  -3.921 -14.004  0.00  0.00    -0.029 C 
ATOM     15  C23 UNL A   1      -6.141  -2.428 -14.166  0.00  0.00    +0.008 C 
ATOM     16  C24 UNL A   1      -6.338  -1.756 -12.805  0.00  0.00    +0.013 C 
ATOM     17  C25 UNL A   1      -6.219  -4.794 -15.215  0.00  0.00    +0.007 C 
ATOM     18  C26 UNL A   1      -7.215  -4.793 -14.088  0.00  0.00    +0.007 C 
ENDROOT
BRANCH  10  19
ATOM     19  C10 UNL A   1      -1.602   0.352 -12.291  0.00  0.00    +0.039 A 
ATOM     20  C11 UNL A   1      -1.958   0.850 -13.545  0.00  0.00    +0.041 A 
ATOM     21  C12 UNL A   1      -1.037   0.752 -14.590  0.00  0.00    +0.106 A 
ATOM     22  C13 UNL A   1       0.211   0.148 -14.394  0.00  0.00    +0.028 A 
ATOM     23  C14 UNL A   1       0.541  -0.370 -13.140  0.00  0.00    +0.003 A 
ATOM     24  C15 UNL A   1      -0.367  -0.271 -12.085  0.00  0.00    +0.013 A 
BRANCH  21  25
ATOM     25  S1  UNL A   1      -1.454   1.421 -16.177  0.00  0.00    +0.059 S 
ATOM     26  O1  UNL A   1      -0.285   2.131 -16.647  0.00  0.00    -0.153 OA
ATOM     27  O2  UNL A   1      -2.750   2.055 -16.092  0.00  0.00    -0.153 OA
BRANCH  25  28
ATOM     28  N2  UNL A   1      -1.578   0.057 -17.147  0.00  0.00    -0.185 NA
ATOM     29  H10 UNL A   1      -0.834   0.043 -17.847  0.00  0.00    +0.149 HD
BRANCH  28  30
ATOM     30  C16 UNL A   1      -2.846  -0.615 -17.506  0.00  0.00    +0.032 C 
ATOM     31  C17 UNL A   1      -2.572  -1.743 -18.505  0.00  0.00    +0.029 C 
ATOM     32  C18 UNL A   1      -3.386  -1.232 -16.202  0.00  0.00    +0.029 C 
ATOM     33  C19 UNL A   1      -3.895   0.358 -18.049  0.00  0.00    +0.029 C 
ENDBRANCH  28  30
ENDBRANCH  25  28
ENDBRANCH  21  25
ENDBRANCH  10  19
BRANCH   4  34
ATOM     34  N3  UNL A   1      -7.789  -1.224  -7.533  0.00  0.00    -0.221 N 
ATOM     35  H32 UNL A   1      -7.722  -2.054  -6.941  0.00  0.00    +0.173 HD
BRANCH  34  36
ATOM     36  S2  UNL A   1      -9.335  -1.179  -8.225  0.00  0.00    +0.040 S 
ATOM     37  C27 UNL A   1      -9.284   0.365  -9.110  0.00  0.00    +0.218 C 
ATOM     38  O4  UNL A   1     -10.244  -1.015  -7.111  0.00  0.00    -0.155 OA
ATOM     39  O5  UNL A   1      -9.495  -2.266  -9.164  0.00  0.00    -0.155 OA
ENDBRANCH  34  36
ENDBRANCH   4  34
TORSDOF 6
ENDMDL
MODEL 5
REMARK VINA RESULT:    -7.722      2.050      8.500
REMARK INTER + INTRA:         -10.508
REMARK INTER:                 -10.710
REMARK INTRA:                   0.202
REMARK UNBOUND:                -0.078
REMARK  Name = agan3
REMARK  10 active torsions:
REMARK  status: ('A' for Active; 'I' for Inactive)
REMARK    1  A    between atoms: C4_4  and  N3_33
REMARK    2  A    between atoms: C9_10  and  C10_11
REMARK    3  A    between atoms: C12_13  and  S1_17
REMARK    4  A    between atoms: S1_17  and  N2_18
REMARK    5  A    between atoms: N2_18  and  C16_19
REMARK    6  A    between atoms: C16_19  and  C17_20
REMARK    7  A    between atoms: C16_19  and  C18_21
REMARK    8  A    between atoms: C16_19  and  C19_22
REMARK    9  A    between atoms: N3_33  and  S2_34
REMARK   10  A    between atoms: S2_34  and  C27_35
REMARK                            x       y       z     vdW  Elec       q    Type
REMARK                         _______ _______ _______ _____ _____    ______ ____
ROOT
ATOM      1  C1  UNL A   1      -1.168  -0.293 -13.242  0.00  0.00    +0.041 A 
ATOM      2  C2  UNL A   1       0.178  -0.194 -12.921  0.00  0.00    +0.026 A 
ATOM      3  C3  UNL A   1       1.123  -0.316 -13.944  0.00  0.00    +0.026 A 
ATOM      4  C4  UNL A   1       0.713  -0.522 -15.266  0.00  0.00    +0.048 A 
ATOM      5  C5  UNL A   1      -0.641  -0.630 -15.584  0.00  0.00    +0.030 A 
ATOM      6  C6  UNL A   1      -1.577  -0.512 -14.560  0.00  0.00    -0.017 A 
ATOM      7  C7  UNL A   1      -3.082  -0.646 -14.663  0.00  0.00    +0.014 C 
ATOM      8  C8  UNL A   1      -3.504  -0.319 -13.202  0.00  0.00    +0.125 C 
ATOM      9  N1  UNL A   1      -2.279  -0.206 -12.389  0.00  0.00    -0.266 N 
ATOM     10  C9  UNL A   1      -2.225  -0.043 -11.013  0.00  0.00    +0.251 C 
ATOM     11  O3  UNL A   1      -1.220   0.004 -10.315  0.00  0.00    -0.270 OA
ATOM     12  C20 UNL A   1      -3.680   0.364 -15.664  0.00  0.00    +0.013 C 
ATOM     13  C21 UNL A   1      -5.191   0.189 -15.826  0.00  0.00    +0.008 C 
ATOM     14  C22 UNL A   1      -5.519  -1.234 -16.204  0.00  0.00    -0.029 C 
ATOM     15  C23 UNL A   1      -4.979  -2.265 -15.241  0.00  0.00    +0.008 C 
ATOM     16  C24 UNL A   1      -3.469  -2.090 -15.055  0.00  0.00    +0.013 C 
ATOM     17  C25 UNL A   1      -6.858  -1.506 -16.853  0.00  0.00    +0.007 C 
ATOM     18  C26 UNL A   1      -5.600  -1.591 -17.673  0.00  0.00    +0.007 C 
ENDROOT
BRANCH  10  19
ATOM     19  C10 UNL A   1      -3.522   0.074 -10.317  0.00  0.00    +0.039 A 
ATOM     20  C11 UNL A   1      -4.659  -0.516 -10.870  0.00  0.00    +0.041 A 
ATOM     21  C12 UNL A   1      -5.866  -0.420 -10.177  0.00  0.00    +0.106 A 
ATOM     22  C13 UNL A   1      -5.945   0.271  -8.961  0.00  0.00    +0.028 A 
ATOM     23  C14 UNL A   1      -4.803   0.879  -8.435  0.00  0.00    +0.003 A 
ATOM     24  C15 UNL A   1      -3.588   0.784  -9.114  0.00  0.00    +0.013 A 
BRANCH  21  25
ATOM     25  S1  UNL A   1      -7.311  -1.204 -10.841  0.00  0.00    +0.059 S 
ATOM     26  O1  UNL A   1      -7.948  -0.233 -11.703  0.00  0.00    -0.153 OA
ATOM     27  O2  UNL A   1      -8.024  -1.857  -9.768  0.00  0.00    -0.153 OA
BRANCH  25  28
ATOM     28  N2  UNL A   1      -6.675  -2.372 -11.864  0.00  0.00    -0.185 NA
ATOM     29  H10 UNL A   1      -6.975  -2.211 -12.827  0.00  0.00    +0.149 HD
BRANCH  28  30
ATOM     30  C16 UNL A   1      -6.392  -3.773 -11.479  0.00  0.00    +0.032 C 
ATOM     31  C17 UNL A   1      -6.193  -3.865  -9.964  0.00  0.00    +0.029 C 
ATOM     32  C18 UNL A   1      -7.647  -4.581 -11.862  0.00  0.00    +0.029 C 
ATOM     33  C19 UNL A   1      -5.194  -4.360 -12.229  0.00  0.00    +0.029 C 
ENDBRANCH  28  30
ENDBRANCH  25  28
ENDBRANCH  21  25
ENDBRANCH  10  19
BRANCH   4  34
ATOM     34  N3  UNL A   1       1.699  -0.689 -16.280  0.00  0.00    -0.221 N 
ATOM     35  H32 UNL A   1       2.441  -1.355 -16.056  0.00  0.00    +0.173 HD
BRANCH  34  36
ATOM     36  S2  UNL A   1       2.408   0.720 -16.900  0.00  0.00    +0.040 S 
ATOM     37  C27 UNL A   1       4.022   0.666 -16.150  0.00  0.00    +0.218 C 
ATOM     38  O4  UNL A   1       1.678   1.811 -16.291  0.00  0.00    -0.155 OA
ATOM     39  O5  UNL A   1       2.542   0.622 -18.336  0.00  0.00    -0.155 OA
ENDBRANCH  34  36
ENDBRANCH   4  34
TORSDOF 6
ENDMDL
MODEL 6
REMARK VINA RESULT:    -7.657      2.407      8.564
REMARK INTER + INTRA:         -10.421
REMARK INTER:                  -9.924
REMARK INTRA:                  -0.497
REMARK UNBOUND:                -0.078
REMARK  Name = agan3
REMARK  10 active torsions:
REMARK  status: ('A' for Active; 'I' for Inactive)
REMARK    1  A    between atoms: C4_4  and  N3_33
REMARK    2  A    between atoms: C9_10  and  C10_11
REMARK    3  A    between atoms: C12_13  and  S1_17
REMARK    4  A    between atoms: S1_17  and  N2_18
REMARK    5  A    between atoms: N2_18  and  C16_19
REMARK    6  A    between atoms: C16_19  and  C17_20
REMARK    7  A    between atoms: C16_19  and  C18_21
REMARK    8  A    between atoms: C16_19  and  C19_22
REMARK    9  A    between atoms: N3_33  and  S2_34
REMARK   10  A    between atoms: S2_34  and  C27_35
REMARK                            x       y       z     vdW  Elec       q    Type
REMARK                         _______ _______ _______ _____ _____    ______ ____
ROOT
ATOM      1  C1  UNL A   1      -0.819   0.725 -13.284  0.00  0.00    +0.041 A 
ATOM      2  C2  UNL A   1       0.513   0.684 -12.897  0.00  0.00    +0.026 A 
ATOM      3  C3  UNL A   1       1.500   0.925 -13.857  0.00  0.00    +0.026 A 
ATOM      4  C4  UNL A   1       1.145   1.216 -15.179  0.00  0.00    +0.048 A 
ATOM      5  C5  UNL A   1      -0.195   1.249 -15.567  0.00  0.00    +0.030 A 
ATOM      6  C6  UNL A   1      -1.172   1.002 -14.607  0.00  0.00    -0.017 A 
ATOM      7  C7  UNL A   1      -2.672   0.935 -14.811  0.00  0.00    +0.014 C 
ATOM      8  C8  UNL A   1      -3.155   0.719 -13.348  0.00  0.00    +0.125 C 
ATOM      9  N1  UNL A   1      -1.964   0.514 -12.501  0.00  0.00    -0.266 N 
ATOM     10  C9  UNL A   1      -1.968   0.170 -11.159  0.00  0.00    +0.251 C 
ATOM     11  O3  UNL A   1      -0.992  -0.051 -10.452  0.00  0.00    -0.270 OA
ATOM     12  C20 UNL A   1      -3.229   2.246 -15.402  0.00  0.00    +0.013 C 
ATOM     13  C21 UNL A   1      -4.731   2.163 -15.675  0.00  0.00    +0.008 C 
ATOM     14  C22 UNL A   1      -5.042   0.976 -16.555  0.00  0.00    -0.029 C 
ATOM     15  C23 UNL A   1      -4.541  -0.340 -16.008  0.00  0.00    +0.008 C 
ATOM     16  C24 UNL A   1      -3.040  -0.265 -15.713  0.00  0.00    +0.013 C 
ATOM     17  C25 UNL A   1      -6.352   0.975 -17.310  0.00  0.00    +0.007 C 
ATOM     18  C26 UNL A   1      -5.061   1.173 -18.055  0.00  0.00    +0.007 C 
ENDROOT
BRANCH  10  19
ATOM     19  C10 UNL A   1      -3.292   0.046 -10.519  0.00  0.00    +0.039 A 
ATOM     20  C11 UNL A   1      -4.272  -0.754 -11.107  0.00  0.00    +0.041 A 
ATOM     21  C12 UNL A   1      -5.505  -0.882 -10.465  0.00  0.00    +0.106 A 
ATOM     22  C13 UNL A   1      -5.766  -0.206  -9.266  0.00  0.00    +0.028 A 
ATOM     23  C14 UNL A   1      -4.783   0.613  -8.705  0.00  0.00    +0.003 A 
ATOM     24  C15 UNL A   1      -3.544   0.742  -9.332  0.00  0.00    +0.013 A 
BRANCH  21  25
ATOM     25  S1  UNL A   1      -6.745  -1.931 -11.174  0.00  0.00    +0.059 S 
ATOM     26  O1  UNL A   1      -7.589  -1.084 -11.986  0.00  0.00    -0.153 OA
ATOM     27  O2  UNL A   1      -7.287  -2.781 -10.139  0.00  0.00    -0.153 OA
BRANCH  25  28
ATOM     28  N2  UNL A   1      -5.875  -2.875 -12.255  0.00  0.00    -0.185 NA
ATOM     29  H10 UNL A   1      -5.051  -2.373 -12.590  0.00  0.00    +0.149 HD
BRANCH  28  30
ATOM     30  C16 UNL A   1      -6.464  -3.877 -13.170  0.00  0.00    +0.032 C 
ATOM     31  C17 UNL A   1      -6.189  -3.480 -14.623  0.00  0.00    +0.029 C 
ATOM     32  C18 UNL A   1      -5.737  -5.203 -12.875  0.00  0.00    +0.029 C 
ATOM     33  C19 UNL A   1      -7.961  -4.086 -12.930  0.00  0.00    +0.029 C 
ENDBRANCH  28  30
ENDBRANCH  25  28
ENDBRANCH  21  25
ENDBRANCH  10  19
BRANCH   4  34
ATOM     34  N3  UNL A   1       2.173   1.413 -16.146  0.00  0.00    -0.221 N 
ATOM     35  H32 UNL A   1       2.115   2.292 -16.664  0.00  0.00    +0.173 HD
BRANCH  34  36
ATOM     36  S2  UNL A   1       2.441   0.154 -17.248  0.00  0.00    +0.040 S 
ATOM     37  C27 UNL A   1       4.214   0.004 -17.192  0.00  0.00    +0.218 C 
ATOM     38  O4  UNL A   1       2.089   0.701 -18.541  0.00  0.00    -0.155 OA
ATOM     39  O5  UNL A   1       1.840  -1.069 -16.767  0.00  0.00    -0.155 OA
ENDBRANCH  34  36
ENDBRANCH   4  34
TORSDOF 6
ENDMDL
MODEL 7
REMARK VINA RESULT:    -7.650      4.829      7.943
REMARK INTER + INTRA:         -10.411
REMARK INTER:                  -9.643
REMARK INTRA:                  -0.768
REMARK UNBOUND:                -0.078
REMARK  Name = agan3
REMARK  10 active torsions:
REMARK  status: ('A' for Active; 'I' for Inactive)
REMARK    1  A    between atoms: C4_4  and  N3_33
REMARK    2  A    between atoms: C9_10  and  C10_11
REMARK    3  A    between atoms: C12_13  and  S1_17
REMARK    4  A    between atoms: S1_17  and  N2_18
REMARK    5  A    between atoms: N2_18  and  C16_19
REMARK    6  A    between atoms: C16_19  and  C17_20
REMARK    7  A    between atoms: C16_19  and  C18_21
REMARK    8  A    between atoms: C16_19  and  C19_22
REMARK    9  A    between atoms: N3_33  and  S2_34
REMARK   10  A    between atoms: S2_34  and  C27_35
REMARK                            x       y       z     vdW  Elec       q    Type
REMARK                         _______ _______ _______ _____ _____    ______ ____
ROOT
ATOM      1  C1  UNL A   1       0.654  -0.139 -16.060  0.00  0.00    +0.041 A 
ATOM      2  C2  UNL A   1       1.987   0.034 -16.402  0.00  0.00    +0.026 A 
ATOM      3  C3  UNL A   1       2.943   0.070 -15.383  0.00  0.00    +0.026 A 
ATOM      4  C4  UNL A   1       2.557  -0.079 -14.046  0.00  0.00    +0.048 A 
ATOM      5  C5  UNL A   1       1.215  -0.244 -13.705  0.00  0.00    +0.030 A 
ATOM      6  C6  UNL A   1       0.268  -0.274 -14.724  0.00  0.00    -0.017 A 
ATOM      7  C7  UNL A   1      -1.236  -0.389 -14.586  0.00  0.00    +0.014 C 
ATOM      8  C8  UNL A   1      -1.662  -0.450 -16.080  0.00  0.00    +0.125 C 
ATOM      9  N1  UNL A   1      -0.465  -0.202 -16.905  0.00  0.00    -0.266 N 
ATOM     10  C9  UNL A   1      -0.441  -0.053 -18.283  0.00  0.00    +0.251 C 
ATOM     11  O3  UNL A   1       0.535   0.201 -18.980  0.00  0.00    -0.270 OA
ATOM     12  C20 UNL A   1      -1.645  -1.669 -13.828  0.00  0.00    +0.013 C 
ATOM     13  C21 UNL A   1      -3.158  -1.758 -13.623  0.00  0.00    +0.008 C 
ATOM     14  C22 UNL A   1      -3.672  -0.515 -12.939  0.00  0.00    -0.029 C 
ATOM     15  C23 UNL A   1      -3.321   0.768 -13.655  0.00  0.00    +0.008 C 
ATOM     16  C24 UNL A   1      -1.810   0.862 -13.883  0.00  0.00    +0.013 C 
ATOM     17  C25 UNL A   1      -5.010  -0.591 -12.239  0.00  0.00    +0.007 C 
ATOM     18  C26 UNL A   1      -3.747  -0.500 -11.428  0.00  0.00    +0.007 C 
ENDROOT
BRANCH  10  19
ATOM     19  C10 UNL A   1      -1.732  -0.207 -18.981  0.00  0.00    +0.039 A 
ATOM     20  C11 UNL A   1      -2.636   0.857 -19.006  0.00  0.00    +0.041 A 
ATOM     21  C12 UNL A   1      -3.836   0.699 -19.700  0.00  0.00    +0.106 A 
ATOM     22  C13 UNL A   1      -4.142  -0.507 -20.343  0.00  0.00    +0.028 A 
ATOM     23  C14 UNL A   1      -3.238  -1.571 -20.286  0.00  0.00    +0.003 A 
ATOM     24  C15 UNL A   1      -2.031  -1.424 -19.602  0.00  0.00    +0.013 A 
BRANCH  21  25
ATOM     25  S1  UNL A   1      -4.974   2.055 -19.781  0.00  0.00    +0.059 S 
ATOM     26  O1  UNL A   1      -6.136   1.666 -19.013  0.00  0.00    -0.153 OA
ATOM     27  O2  UNL A   1      -5.078   2.498 -21.152  0.00  0.00    -0.153 OA
BRANCH  25  28
ATOM     28  N2  UNL A   1      -4.212   3.247 -18.879  0.00  0.00    -0.185 NA
ATOM     29  H10 UNL A   1      -3.202   3.223 -19.028  0.00  0.00    +0.149 HD
BRANCH  28  30
ATOM     30  C16 UNL A   1      -4.682   3.749 -17.568  0.00  0.00    +0.032 C 
ATOM     31  C17 UNL A   1      -4.768   2.591 -16.570  0.00  0.00    +0.029 C 
ATOM     32  C18 UNL A   1      -3.607   4.740 -17.082  0.00  0.00    +0.029 C 
ATOM     33  C19 UNL A   1      -6.015   4.493 -17.664  0.00  0.00    +0.029 C 
ENDBRANCH  28  30
ENDBRANCH  25  28
ENDBRANCH  21  25
ENDBRANCH  10  19
BRANCH   4  34
ATOM     34  N3  UNL A   1       3.548   0.007 -13.025  0.00  0.00    -0.221 N 
ATOM     35  H32 UNL A   1       3.317  -0.482 -12.158  0.00  0.00    +0.173 HD
BRANCH  34  36
ATOM     36  S2  UNL A   1       4.117   1.555 -12.636  0.00  0.00    +0.040 S 
ATOM     37  C27 UNL A   1       5.736   1.536 -13.377  0.00  0.00    +0.218 C 
ATOM     38  O4  UNL A   1       4.293   1.544 -11.199  0.00  0.00    -0.155 OA
ATOM     39  O5  UNL A   1       3.306   2.563 -13.280  0.00  0.00    -0.155 OA
ENDBRANCH  34  36
ENDBRANCH   4  34
TORSDOF 6
ENDMDL
MODEL 8
REMARK VINA RESULT:    -7.517      4.819      8.308
REMARK INTER + INTRA:         -10.232
REMARK INTER:                  -9.889
REMARK INTRA:                  -0.343
REMARK UNBOUND:                -0.078
REMARK  Name = agan3
REMARK  10 active torsions:
REMARK  status: ('A' for Active; 'I' for Inactive)
REMARK    1  A    between atoms: C4_4  and  N3_33
REMARK    2  A    between atoms: C9_10  and  C10_11
REMARK    3  A    between atoms: C12_13  and  S1_17
REMARK    4  A    between atoms: S1_17  and  N2_18
REMARK    5  A    between atoms: N2_18  and  C16_19
REMARK    6  A    between atoms: C16_19  and  C17_20
REMARK    7  A    between atoms: C16_19  and  C18_21
REMARK    8  A    between atoms: C16_19  and  C19_22
REMARK    9  A    between atoms: N3_33  and  S2_34
REMARK   10  A    between atoms: S2_34  and  C27_35
REMARK                            x       y       z     vdW  Elec       q    Type
REMARK                         _______ _______ _______ _____ _____    ______ ____
ROOT
ATOM      1  C1  UNL A   1       0.610  -0.221 -16.123  0.00  0.00    +0.041 A 
ATOM      2  C2  UNL A   1       1.931  -0.042 -16.505  0.00  0.00    +0.026 A 
ATOM      3  C3  UNL A   1       2.914   0.027 -15.514  0.00  0.00    +0.026 A 
ATOM      4  C4  UNL A   1       2.567  -0.095 -14.164  0.00  0.00    +0.048 A 
ATOM      5  C5  UNL A   1       1.236  -0.267 -13.782  0.00  0.00    +0.030 A 
ATOM      6  C6  UNL A   1       0.262  -0.330 -14.774  0.00  0.00    -0.017 A 
ATOM      7  C7  UNL A   1      -1.236  -0.459 -14.592  0.00  0.00    +0.014 C 
ATOM      8  C8  UNL A   1      -1.702  -0.559 -16.073  0.00  0.00    +0.125 C 
ATOM      9  N1  UNL A   1      -0.530  -0.316 -16.936  0.00  0.00    -0.266 N 
ATOM     10  C9  UNL A   1      -0.546  -0.198 -18.317  0.00  0.00    +0.251 C 
ATOM     11  O3  UNL A   1       0.407   0.050 -19.046  0.00  0.00    -0.270 OA
ATOM     12  C20 UNL A   1      -1.610  -1.726 -13.795  0.00  0.00    +0.013 C 
ATOM     13  C21 UNL A   1      -3.115  -1.827 -13.547  0.00  0.00    +0.008 C 
ATOM     14  C22 UNL A   1      -3.625  -0.574 -12.877  0.00  0.00    -0.029 C 
ATOM     15  C23 UNL A   1      -3.309   0.696 -13.631  0.00  0.00    +0.008 C 
ATOM     16  C24 UNL A   1      -1.806   0.802 -13.902  0.00  0.00    +0.013 C 
ATOM     17  C25 UNL A   1      -4.943  -0.650 -12.139  0.00  0.00    +0.007 C 
ATOM     18  C26 UNL A   1      -3.659  -0.527 -11.365  0.00  0.00    +0.007 C 
ENDROOT
BRANCH  10  19
ATOM     19  C10 UNL A   1      -1.854  -0.382 -18.975  0.00  0.00    +0.039 A 
ATOM     20  C11 UNL A   1      -2.359  -1.670 -19.160  0.00  0.00    +0.041 A 
ATOM     21  C12 UNL A   1      -3.614  -1.817 -19.755  0.00  0.00    +0.106 A 
ATOM     22  C13 UNL A   1      -4.345  -0.700 -20.177  0.00  0.00    +0.028 A 
ATOM     23  C14 UNL A   1      -3.813   0.580 -20.008  0.00  0.00    +0.003 A 
ATOM     24  C15 UNL A   1      -2.564   0.742 -19.408  0.00  0.00    +0.013 A 
BRANCH  21  25
ATOM     25  S1  UNL A   1      -4.291  -3.442 -19.956  0.00  0.00    +0.059 S 
ATOM     26  O1  UNL A   1      -3.207  -4.373 -19.729  0.00  0.00    -0.153 OA
ATOM     27  O2  UNL A   1      -5.084  -3.473 -21.163  0.00  0.00    -0.153 OA
BRANCH  25  28
ATOM     28  N2  UNL A   1      -5.309  -3.599 -18.631  0.00  0.00    -0.185 NA
ATOM     29  H10 UNL A   1      -5.993  -2.840 -18.610  0.00  0.00    +0.149 HD
BRANCH  28  30
ATOM     30  C16 UNL A   1      -4.921  -4.184 -17.329  0.00  0.00    +0.032 C 
ATOM     31  C17 UNL A   1      -3.470  -3.819 -17.006  0.00  0.00    +0.029 C 
ATOM     32  C18 UNL A   1      -5.840  -3.532 -16.278  0.00  0.00    +0.029 C 
ATOM     33  C19 UNL A   1      -5.132  -5.699 -17.277  0.00  0.00    +0.029 C 
ENDBRANCH  28  30
ENDBRANCH  25  28
ENDBRANCH  21  25
ENDBRANCH  10  19
BRANCH   4  34
ATOM     34  N3  UNL A   1       3.583   0.025 -13.172  0.00  0.00    -0.221 N 
ATOM     35  H32 UNL A   1       3.283  -0.184 -12.219  0.00  0.00    +0.173 HD
BRANCH  34  36
ATOM     36  S2  UNL A   1       4.470   1.469 -13.154  0.00  0.00    +0.040 S 
ATOM     37  C27 UNL A   1       5.302   1.356 -11.584  0.00  0.00    +0.218 C 
ATOM     38  O4  UNL A   1       3.481   2.520 -13.051  0.00  0.00    -0.155 OA
ATOM     39  O5  UNL A   1       5.449   1.468 -14.218  0.00  0.00    -0.155 OA
ENDBRANCH  34  36
ENDBRANCH   4  34
TORSDOF 6
ENDMDL
MODEL 9
REMARK VINA RESULT:    -7.342      2.776      8.834
REMARK INTER + INTRA:          -9.995
REMARK INTER:                  -9.474
REMARK INTRA:                  -0.521
REMARK UNBOUND:                -0.078
REMARK  Name = agan3
REMARK  10 active torsions:
REMARK  status: ('A' for Active; 'I' for Inactive)
REMARK    1  A    between atoms: C4_4  and  N3_33
REMARK    2  A    between atoms: C9_10  and  C10_11
REMARK    3  A    between atoms: C12_13  and  S1_17
REMARK    4  A    between atoms: S1_17  and  N2_18
REMARK    5  A    between atoms: N2_18  and  C16_19
REMARK    6  A    between atoms: C16_19  and  C17_20
REMARK    7  A    between atoms: C16_19  and  C18_21
REMARK    8  A    between atoms: C16_19  and  C19_22
REMARK    9  A    between atoms: N3_33  and  S2_34
REMARK   10  A    between atoms: S2_34  and  C27_35
REMARK                            x       y       z     vdW  Elec       q    Type
REMARK                         _______ _______ _______ _____ _____    ______ ____
ROOT
ATOM      1  C1  UNL A   1      -1.496  -0.717 -13.322  0.00  0.00    +0.041 A 
ATOM      2  C2  UNL A   1      -0.513  -0.204 -12.489  0.00  0.00    +0.026 A 
ATOM      3  C3  UNL A   1       0.782  -0.051 -12.993  0.00  0.00    +0.026 A 
ATOM      4  C4  UNL A   1       1.071  -0.398 -14.317  0.00  0.00    +0.048 A 
ATOM      5  C5  UNL A   1       0.082  -0.922 -15.150  0.00  0.00    +0.030 A 
ATOM      6  C6  UNL A   1      -1.204  -1.076 -14.640  0.00  0.00    -0.017 A 
ATOM      7  C7  UNL A   1      -2.411  -1.667 -15.339  0.00  0.00    +0.014 C 
ATOM      8  C8  UNL A   1      -3.507  -1.457 -14.256  0.00  0.00    +0.125 C 
ATOM      9  N1  UNL A   1      -2.848  -0.958 -13.034  0.00  0.00    -0.266 N 
ATOM     10  C9  UNL A   1      -3.456  -0.759 -11.803  0.00  0.00    +0.251 C 
ATOM     11  O3  UNL A   1      -2.917  -0.392 -10.766  0.00  0.00    -0.270 OA
ATOM     12  C20 UNL A   1      -2.747  -0.909 -16.639  0.00  0.00    +0.013 C 
ATOM     13  C21 UNL A   1      -3.922  -1.541 -17.387  0.00  0.00    +0.008 C 
ATOM     14  C22 UNL A   1      -3.656  -3.004 -17.646  0.00  0.00    -0.029 C 
ATOM     15  C23 UNL A   1      -3.346  -3.801 -16.400  0.00  0.00    +0.008 C 
ATOM     16  C24 UNL A   1      -2.183  -3.168 -15.632  0.00  0.00    +0.013 C 
ATOM     17  C25 UNL A   1      -4.442  -3.686 -18.744  0.00  0.00    +0.007 C 
ATOM     18  C26 UNL A   1      -2.979  -3.398 -18.941  0.00  0.00    +0.007 C 
ENDROOT
BRANCH  10  19
ATOM     19  C10 UNL A   1      -4.905  -1.031 -11.738  0.00  0.00    +0.039 A 
ATOM     20  C11 UNL A   1      -5.357  -2.271 -11.285  0.00  0.00    +0.041 A 
ATOM     21  C12 UNL A   1      -6.732  -2.493 -11.201  0.00  0.00    +0.106 A 
ATOM     22  C13 UNL A   1      -7.645  -1.501 -11.580  0.00  0.00    +0.028 A 
ATOM     23  C14 UNL A   1      -7.177  -0.275 -12.056  0.00  0.00    +0.003 A 
ATOM     24  C15 UNL A   1      -5.805  -0.037 -12.138  0.00  0.00    +0.013 A 
BRANCH  21  25
ATOM     25  S1  UNL A   1      -7.322  -4.046 -10.584  0.00  0.00    +0.059 S 
ATOM     26  O1  UNL A   1      -8.689  -4.179 -11.038  0.00  0.00    -0.153 OA
ATOM     27  O2  UNL A   1      -6.966  -4.162  -9.189  0.00  0.00    -0.153 OA
BRANCH  25  28
ATOM     28  N2  UNL A   1      -6.440  -5.168 -11.467  0.00  0.00    -0.185 NA
ATOM     29  H10 UNL A   1      -5.461  -5.169 -11.173  0.00  0.00    +0.149 HD
BRANCH  28  30
ATOM     30  C16 UNL A   1      -6.716  -5.549 -12.869  0.00  0.00    +0.032 C 
ATOM     31  C17 UNL A   1      -5.398  -5.750 -13.623  0.00  0.00    +0.029 C 
ATOM     32  C18 UNL A   1      -7.458  -6.898 -12.805  0.00  0.00    +0.029 C 
ATOM     33  C19 UNL A   1      -7.614  -4.540 -13.589  0.00  0.00    +0.029 C 
ENDBRANCH  28  30
ENDBRANCH  25  28
ENDBRANCH  21  25
ENDBRANCH  10  19
BRANCH   4  34
ATOM     34  N3  UNL A   1       2.410  -0.275 -14.790  0.00  0.00    -0.221 N 
ATOM     35  H32 UNL A   1       3.133  -0.496 -14.102  0.00  0.00    +0.173 HD
BRANCH  34  36
ATOM     36  S2  UNL A   1       2.822   1.179 -15.556  0.00  0.00    +0.040 S 
ATOM     37  C27 UNL A   1       4.501   0.857 -16.051  0.00  0.00    +0.218 C 
ATOM     38  O4  UNL A   1       2.858   2.167 -14.499  0.00  0.00    -0.155 OA
ATOM     39  O5  UNL A   1       2.004   1.374 -16.731  0.00  0.00    -0.155 OA
ENDBRANCH  34  36
ENDBRANCH   4  34
TORSDOF 6
ENDMDL
