MODEL 1
REMARK VINA RESULT:    -8.032      0.000      0.000
REMARK INTER + INTRA:         -13.617
REMARK INTER:                 -11.554
REMARK INTRA:                  -2.063
REMARK UNBOUND:                -2.063
REMARK  Name = agan5
REMARK  9 active torsions:
REMARK  status: ('A' for Active; 'I' for Inactive)
REMARK    1  A    between atoms: C4_4  and  N2_15
REMARK    2  A    between atoms: C6_6  and  N1_7
REMARK    3  A    between atoms: N2_15  and  S1_16
REMARK    4  A    between atoms: S1_16  and  C14_17
REMARK    5  A    between atoms: C14_17  and  C15_18
REMARK    6  A    between atoms: C15_18  and  O1_19
REMARK    7  A    between atoms: N5_26  and  C18_27
REMARK    8  A    between atoms: C20_29  and  C29_41
REMARK    9  A    between atoms: C22_31  and  N6_33
REMARK                            x       y       z     vdW  Elec       q    Type
REMARK                         _______ _______ _______ _____ _____    ______ ____
ROOT
ATOM      1  C1  UNL A   1      -2.666  -0.391 -12.881  0.00  0.00    +0.061 A 
ATOM      2  C2  UNL A   1      -1.825   0.573 -12.301  0.00  0.00    +0.080 A 
ATOM      3  C3  UNL A   1      -0.811   1.143 -13.057  0.00  0.00    +0.053 A 
ATOM      4  C4  UNL A   1      -0.565   0.777 -14.380  0.00  0.00    +0.051 A 
ATOM      5  C5  UNL A   1      -1.413  -0.142 -14.981  0.00  0.00    +0.048 A 
ATOM      6  C6  UNL A   1      -2.446  -0.759 -14.253  0.00  0.00    +0.044 A 
ATOM      7  N3  UNL A   1      -1.941   0.989 -11.039  0.00  0.00    -0.235 NA
ATOM      8  C16 UNL A   1      -2.907   0.431 -10.308  0.00  0.00    +0.224 A 
ATOM      9  N4  UNL A   1      -3.772  -0.493 -10.724  0.00  0.00    -0.220 NA
ATOM     10  C17 UNL A   1      -3.658  -0.908 -12.001  0.00  0.00    +0.136 A 
ATOM     11  N5  UNL A   1      -4.571  -1.866 -12.503  0.00  0.00    -0.299 N 
ATOM     12  H22 UNL A   1      -4.213  -2.252 -13.380  0.00  0.00    +0.154 HD
ENDROOT
BRANCH   6  13
ATOM     13  N1  UNL A   1      -3.276  -1.733 -14.878  0.00  0.00    -0.329 N 
ATOM     14  C7  UNL A   1      -2.548  -2.933 -15.371  0.00  0.00    +0.105 C 
ATOM     15  C8  UNL A   1      -2.605  -3.078 -16.895  0.00  0.00    +0.026 C 
ATOM     16  C9  UNL A   1      -4.038  -3.078 -17.396  0.00  0.00    -0.026 C 
ATOM     17  C10 UNL A   1      -4.982  -2.182 -16.612  0.00  0.00    +0.026 C 
ATOM     18  C11 UNL A   1      -4.209  -1.104 -15.847  0.00  0.00    +0.105 C 
ATOM     19  C12 UNL A   1      -4.608  -4.361 -17.969  0.00  0.00    +0.007 C 
ATOM     20  C13 UNL A   1      -4.257  -3.231 -18.889  0.00  0.00    +0.007 C 
ENDBRANCH   6  13
BRANCH  11  21
ATOM     21  C18 UNL A   1      -5.648  -2.569 -11.943  0.00  0.00    +0.034 A 
ATOM     22  C19 UNL A   1      -5.812  -3.920 -12.289  0.00  0.00    +0.026 A 
ATOM     23  C20 UNL A   1      -6.876  -4.679 -11.792  0.00  0.00    -0.047 A 
ATOM     24  C21 UNL A   1      -7.783  -4.077 -10.916  0.00  0.00    +0.026 A 
ATOM     25  C22 UNL A   1      -7.670  -2.726 -10.552  0.00  0.00    +0.032 A 
ATOM     26  C23 UNL A   1      -6.594  -1.994 -11.084  0.00  0.00    +0.046 A 
ATOM     27  C29 UNL A   1      -7.000  -6.133 -12.135  0.00  0.00    +0.044 C 
BRANCH  25  28
ATOM     28  N6  UNL A   1      -8.629  -2.180  -9.671  0.00  0.00    -0.330 N 
ATOM     29  C24 UNL A   1      -8.122  -1.266  -8.636  0.00  0.00    +0.111 C 
ATOM     30  C25 UNL A   1      -9.206  -1.054  -7.593  0.00  0.00    +0.094 C 
ATOM     31  C26 UNL A   1     -10.465  -0.556  -8.269  0.00  0.00    +0.252 C 
ATOM     32  C27 UNL A   1     -10.938  -1.447  -9.397  0.00  0.00    +0.094 C 
ATOM     33  C28 UNL A   1      -9.809  -1.666 -10.391  0.00  0.00    +0.111 C 
ATOM     34  F1  UNL A   1     -11.455  -0.440  -7.345  0.00  0.00    -0.206 F 
ATOM     35  F2  UNL A   1     -10.252   0.700  -8.748  0.00  0.00    -0.206 F 
ENDBRANCH  25  28
ENDBRANCH  11  21
BRANCH   4  36
ATOM     36  N2  UNL A   1       0.450   1.499 -15.087  0.00  0.00    -0.220 N 
ATOM     37  H15 UNL A   1       0.724   2.397 -14.683  0.00  0.00    +0.173 HD
BRANCH  36  38
ATOM     38  S1  UNL A   1       1.790   0.745 -15.768  0.00  0.00    +0.045 S 
ATOM     39  O2  UNL A   1       1.825   0.988 -17.192  0.00  0.00    -0.155 OA
ATOM     40  O3  UNL A   1       1.770  -0.605 -15.244  0.00  0.00    -0.155 OA
BRANCH  38  41
ATOM     41  C14 UNL A   1       3.148   1.603 -14.997  0.00  0.00    +0.216 C 
BRANCH  41  42
ATOM     42  C15 UNL A   1       2.845   1.980 -13.566  0.00  0.00    +0.180 C 
BRANCH  42  43
ATOM     43  O1  UNL A   1       2.686   0.789 -12.799  0.00  0.00    -0.393 OA
ATOM     44  H20 UNL A   1       1.822   0.406 -13.034  0.00  0.00    +0.209 HD
ENDBRANCH  42  43
ENDBRANCH  41  42
ENDBRANCH  38  41
ENDBRANCH  36  38
ENDBRANCH   4  36
TORSDOF 8
ENDMDL
MODEL 2
REMARK VINA RESULT:    -7.873      5.728      9.613
REMARK INTER + INTRA:         -13.388
REMARK INTER:                 -11.667
REMARK INTRA:                  -1.721
REMARK UNBOUND:                -2.063
REMARK  Name = agan5
REMARK  9 active torsions:
REMARK  status: ('A' for Active; 'I' for Inactive)
REMARK    1  A    between atoms: C4_4  and  N2_15
REMARK    2  A    between atoms: C6_6  and  N1_7
REMARK    3  A    between atoms: N2_15  and  S1_16
REMARK    4  A    between atoms: S1_16  and  C14_17
REMARK    5  A    between atoms: C14_17  and  C15_18
REMARK    6  A    between atoms: C15_18  and  O1_19
REMARK    7  A    between atoms: N5_26  and  C18_27
REMARK    8  A    between atoms: C20_29  and  C29_41
REMARK    9  A    between atoms: C22_31  and  N6_33
REMARK                            x       y       z     vdW  Elec       q    Type
REMARK                         _______ _______ _______ _____ _____    ______ ____
ROOT
ATOM      1  C1  UNL A   1      -4.779  -0.992 -10.837  0.00  0.00    +0.061 A 
ATOM      2  C2  UNL A   1      -4.854  -0.192  -9.686  0.00  0.00    +0.080 A 
ATOM      3  C3  UNL A   1      -5.939  -0.320  -8.831  0.00  0.00    +0.053 A 
ATOM      4  C4  UNL A   1      -6.992  -1.200  -9.081  0.00  0.00    +0.051 A 
ATOM      5  C5  UNL A   1      -6.912  -2.029 -10.191  0.00  0.00    +0.048 A 
ATOM      6  C6  UNL A   1      -5.840  -1.927 -11.095  0.00  0.00    +0.044 A 
ATOM      7  N3  UNL A   1      -3.926   0.705  -9.349  0.00  0.00    -0.235 NA
ATOM      8  C16 UNL A   1      -2.889   0.837 -10.177  0.00  0.00    +0.224 A 
ATOM      9  N4  UNL A   1      -2.690   0.151 -11.301  0.00  0.00    -0.220 NA
ATOM     10  C17 UNL A   1      -3.625  -0.759 -11.637  0.00  0.00    +0.136 A 
ATOM     11  N5  UNL A   1      -3.448  -1.537 -12.806  0.00  0.00    -0.299 N 
ATOM     12  H22 UNL A   1      -4.331  -1.990 -13.053  0.00  0.00    +0.154 HD
ENDROOT
BRANCH   6  13
ATOM     13  N1  UNL A   1      -5.802  -2.755 -12.253  0.00  0.00    -0.329 N 
ATOM     14  C7  UNL A   1      -6.962  -2.584 -13.168  0.00  0.00    +0.105 C 
ATOM     15  C8  UNL A   1      -7.824  -3.847 -13.279  0.00  0.00    +0.026 C 
ATOM     16  C9  UNL A   1      -6.991  -5.049 -13.689  0.00  0.00    -0.026 C 
ATOM     17  C10 UNL A   1      -5.575  -5.055 -13.137  0.00  0.00    +0.026 C 
ATOM     18  C11 UNL A   1      -5.462  -4.158 -11.900  0.00  0.00    +0.105 C 
ATOM     19  C12 UNL A   1      -7.206  -5.646 -15.066  0.00  0.00    +0.007 C 
ATOM     20  C13 UNL A   1      -7.709  -6.373 -13.855  0.00  0.00    +0.007 C 
ENDBRANCH   6  13
BRANCH  11  21
ATOM     21  C18 UNL A   1      -2.460  -1.583 -13.802  0.00  0.00    +0.034 A 
ATOM     22  C19 UNL A   1      -2.768  -2.222 -15.014  0.00  0.00    +0.026 A 
ATOM     23  C20 UNL A   1      -1.828  -2.331 -16.043  0.00  0.00    -0.047 A 
ATOM     24  C21 UNL A   1      -0.559  -1.773 -15.860  0.00  0.00    +0.026 A 
ATOM     25  C22 UNL A   1      -0.200  -1.138 -14.662  0.00  0.00    +0.032 A 
ATOM     26  C23 UNL A   1      -1.169  -1.061 -13.647  0.00  0.00    +0.046 A 
ATOM     27  C29 UNL A   1      -2.197  -2.972 -17.347  0.00  0.00    +0.044 C 
BRANCH  25  28
ATOM     28  N6  UNL A   1       1.104  -0.606 -14.542  0.00  0.00    -0.330 N 
ATOM     29  C24 UNL A   1       1.699  -0.050 -15.766  0.00  0.00    +0.111 C 
ATOM     30  C25 UNL A   1       3.188   0.153 -15.540  0.00  0.00    +0.094 C 
ATOM     31  C26 UNL A   1       3.399   1.023 -14.321  0.00  0.00    +0.252 C 
ATOM     32  C27 UNL A   1       2.709   0.501 -13.080  0.00  0.00    +0.094 C 
ATOM     33  C28 UNL A   1       1.234   0.272 -13.365  0.00  0.00    +0.111 C 
ATOM     34  F1  UNL A   1       4.731   1.140 -14.078  0.00  0.00    -0.206 F 
ATOM     35  F2  UNL A   1       2.956   2.283 -14.585  0.00  0.00    -0.206 F 
ENDBRANCH  25  28
ENDBRANCH  11  21
BRANCH   4  36
ATOM     36  N2  UNL A   1      -8.012  -1.311  -8.081  0.00  0.00    -0.220 N 
ATOM     37  H15 UNL A   1      -7.745  -1.028  -7.136  0.00  0.00    +0.173 HD
BRANCH  36  38
ATOM     38  S1  UNL A   1      -9.615  -0.894  -8.373  0.00  0.00    +0.045 S 
ATOM     39  O2  UNL A   1      -9.682   0.413  -8.988  0.00  0.00    -0.155 OA
ATOM     40  O3  UNL A   1     -10.309  -1.169  -7.132  0.00  0.00    -0.155 OA
BRANCH  38  41
ATOM     41  C14 UNL A   1     -10.122  -2.123  -9.560  0.00  0.00    +0.216 C 
BRANCH  41  42
ATOM     42  C15 UNL A   1     -11.549  -1.921 -10.014  0.00  0.00    +0.180 C 
BRANCH  42  43
ATOM     43  O1  UNL A   1     -12.193  -1.012  -9.125  0.00  0.00    -0.393 OA
ATOM     44  H20 UNL A   1     -12.730  -0.408  -9.668  0.00  0.00    +0.209 HD
ENDBRANCH  42  43
ENDBRANCH  41  42
ENDBRANCH  38  41
ENDBRANCH  36  38
ENDBRANCH   4  36
TORSDOF 8
ENDMDL
MODEL 3
REMARK VINA RESULT:    -7.835      1.011      1.229
REMARK INTER + INTRA:         -13.334
REMARK INTER:                 -11.526
REMARK INTRA:                  -1.809
REMARK UNBOUND:                -2.063
REMARK  Name = agan5
REMARK  9 active torsions:
REMARK  status: ('A' for Active; 'I' for Inactive)
REMARK    1  A    between atoms: C4_4  and  N2_15
REMARK    2  A    between atoms: C6_6  and  N1_7
REMARK    3  A    between atoms: N2_15  and  S1_16
REMARK    4  A    between atoms: S1_16  and  C14_17
REMARK    5  A    between atoms: C14_17  and  C15_18
REMARK    6  A    between atoms: C15_18  and  O1_19
REMARK    7  A    between atoms: N5_26  and  C18_27
REMARK    8  A    between atoms: C20_29  and  C29_41
REMARK    9  A    between atoms: C22_31  and  N6_33
REMARK                            x       y       z     vdW  Elec       q    Type
REMARK                         _______ _______ _______ _____ _____    ______ ____
ROOT
ATOM      1  C1  UNL A   1      -2.487  -0.373 -12.832  0.00  0.00    +0.061 A 
ATOM      2  C2  UNL A   1      -1.678   0.533 -12.128  0.00  0.00    +0.080 A 
ATOM      3  C3  UNL A   1      -0.565   1.084 -12.745  0.00  0.00    +0.053 A 
ATOM      4  C4  UNL A   1      -0.187   0.753 -14.046  0.00  0.00    +0.051 A 
ATOM      5  C5  UNL A   1      -0.999  -0.107 -14.772  0.00  0.00    +0.048 A 
ATOM      6  C6  UNL A   1      -2.130  -0.703 -14.186  0.00  0.00    +0.044 A 
ATOM      7  N3  UNL A   1      -1.917   0.911 -10.870  0.00  0.00    -0.235 NA
ATOM      8  C16 UNL A   1      -2.980   0.371 -10.272  0.00  0.00    +0.224 A 
ATOM      9  N4  UNL A   1      -3.828  -0.500 -10.816  0.00  0.00    -0.220 NA
ATOM     10  C17 UNL A   1      -3.590  -0.876 -12.087  0.00  0.00    +0.136 A 
ATOM     11  N5  UNL A   1      -4.478  -1.776 -12.723  0.00  0.00    -0.299 N 
ATOM     12  H22 UNL A   1      -4.040  -2.147 -13.570  0.00  0.00    +0.154 HD
ENDROOT
BRANCH   6  13
ATOM     13  N1  UNL A   1      -2.923  -1.619 -14.934  0.00  0.00    -0.329 N 
ATOM     14  C7  UNL A   1      -2.170  -2.782 -15.475  0.00  0.00    +0.105 C 
ATOM     15  C8  UNL A   1      -2.134  -2.807 -17.007  0.00  0.00    +0.026 C 
ATOM     16  C9  UNL A   1      -3.534  -2.756 -17.593  0.00  0.00    -0.026 C 
ATOM     17  C10 UNL A   1      -4.521  -1.917 -16.799  0.00  0.00    +0.026 C 
ATOM     18  C11 UNL A   1      -3.794  -0.908 -15.906  0.00  0.00    +0.105 C 
ATOM     19  C12 UNL A   1      -4.072  -3.986 -18.299  0.00  0.00    +0.007 C 
ATOM     20  C13 UNL A   1      -3.662  -2.789 -19.103  0.00  0.00    +0.007 C 
ENDBRANCH   6  13
BRANCH  11  21
ATOM     21  C18 UNL A   1      -5.637  -2.451 -12.311  0.00  0.00    +0.034 A 
ATOM     22  C19 UNL A   1      -5.937  -3.684 -12.911  0.00  0.00    +0.026 A 
ATOM     23  C20 UNL A   1      -7.088  -4.403 -12.573  0.00  0.00    -0.047 A 
ATOM     24  C21 UNL A   1      -7.946  -3.882 -11.600  0.00  0.00    +0.026 A 
ATOM     25  C22 UNL A   1      -7.698  -2.646 -10.983  0.00  0.00    +0.032 A 
ATOM     26  C23 UNL A   1      -6.536  -1.949 -11.360  0.00  0.00    +0.046 A 
ATOM     27  C29 UNL A   1      -7.359  -5.742 -13.189  0.00  0.00    +0.044 C 
BRANCH  25  28
ATOM     28  N6  UNL A   1      -8.614  -2.175 -10.016  0.00  0.00    -0.330 N 
ATOM     29  C24 UNL A   1      -8.066  -1.308  -8.962  0.00  0.00    +0.111 C 
ATOM     30  C25 UNL A   1      -9.088  -1.183  -7.846  0.00  0.00    +0.094 C 
ATOM     31  C26 UNL A   1     -10.397  -0.682  -8.415  0.00  0.00    +0.252 C 
ATOM     32  C27 UNL A   1     -10.917  -1.521  -9.562  0.00  0.00    +0.094 C 
ATOM     33  C28 UNL A   1      -9.847  -1.654 -10.633  0.00  0.00    +0.111 C 
ATOM     34  F1  UNL A   1     -11.331  -0.645  -7.429  0.00  0.00    -0.206 F 
ATOM     35  F2  UNL A   1     -10.243   0.604  -8.833  0.00  0.00    -0.206 F 
ENDBRANCH  25  28
ENDBRANCH  11  21
BRANCH   4  36
ATOM     36  N2  UNL A   1       0.928   1.454 -14.610  0.00  0.00    -0.220 N 
ATOM     37  H15 UNL A   1       0.717   2.358 -15.037  0.00  0.00    +0.173 HD
BRANCH  36  38
ATOM     38  S1  UNL A   1       2.433   1.510 -13.863  0.00  0.00    +0.045 S 
ATOM     39  O2  UNL A   1       2.615   0.345 -13.026  0.00  0.00    -0.155 OA
ATOM     40  O3  UNL A   1       2.532   2.845 -13.311  0.00  0.00    -0.155 OA
BRANCH  38  41
ATOM     41  C14 UNL A   1       3.552   1.413 -15.247  0.00  0.00    +0.216 C 
BRANCH  41  42
ATOM     42  C15 UNL A   1       4.988   1.250 -14.808  0.00  0.00    +0.180 C 
BRANCH  42  43
ATOM     43  O1  UNL A   1       5.140   1.810 -13.506  0.00  0.00    -0.393 OA
ATOM     44  H20 UNL A   1       6.088   1.993 -13.378  0.00  0.00    +0.209 HD
ENDBRANCH  42  43
ENDBRANCH  41  42
ENDBRANCH  38  41
ENDBRANCH  36  38
ENDBRANCH   4  36
TORSDOF 8
ENDMDL
MODEL 4
REMARK VINA RESULT:    -7.712      5.585      9.547
REMARK INTER + INTRA:         -13.156
REMARK INTER:                 -11.363
REMARK INTRA:                  -1.793
REMARK UNBOUND:                -2.063
REMARK  Name = agan5
REMARK  9 active torsions:
REMARK  status: ('A' for Active; 'I' for Inactive)
REMARK    1  A    between atoms: C4_4  and  N2_15
REMARK    2  A    between atoms: C6_6  and  N1_7
REMARK    3  A    between atoms: N2_15  and  S1_16
REMARK    4  A    between atoms: S1_16  and  C14_17
REMARK    5  A    between atoms: C14_17  and  C15_18
REMARK    6  A    between atoms: C15_18  and  O1_19
REMARK    7  A    between atoms: N5_26  and  C18_27
REMARK    8  A    between atoms: C20_29  and  C29_41
REMARK    9  A    between atoms: C22_31  and  N6_33
REMARK                            x       y       z     vdW  Elec       q    Type
REMARK                         _______ _______ _______ _____ _____    ______ ____
ROOT
ATOM      1  C1  UNL A   1      -4.454  -1.252 -11.789  0.00  0.00    +0.061 A 
ATOM      2  C2  UNL A   1      -4.669  -0.620 -10.554  0.00  0.00    +0.080 A 
ATOM      3  C3  UNL A   1      -5.755  -0.989  -9.773  0.00  0.00    +0.053 A 
ATOM      4  C4  UNL A   1      -6.676  -1.955 -10.178  0.00  0.00    +0.051 A 
ATOM      5  C5  UNL A   1      -6.455  -2.619 -11.375  0.00  0.00    +0.048 A 
ATOM      6  C6  UNL A   1      -5.376  -2.272 -12.209  0.00  0.00    +0.044 A 
ATOM      7  N3  UNL A   1      -3.876   0.336 -10.067  0.00  0.00    -0.235 NA
ATOM      8  C16 UNL A   1      -2.839   0.700 -10.823  0.00  0.00    +0.224 A 
ATOM      9  N4  UNL A   1      -2.517   0.192 -12.011  0.00  0.00    -0.220 NA
ATOM     10  C17 UNL A   1      -3.316  -0.778 -12.499  0.00  0.00    +0.136 A 
ATOM     11  N5  UNL A   1      -3.002  -1.374 -13.744  0.00  0.00    -0.299 N 
ATOM     12  H22 UNL A   1      -3.811  -1.898 -14.085  0.00  0.00    +0.154 HD
ENDROOT
BRANCH   6  13
ATOM     13  N1  UNL A   1      -5.195  -2.936 -13.456  0.00  0.00    -0.329 N 
ATOM     14  C7  UNL A   1      -6.216  -2.599 -14.484  0.00  0.00    +0.105 C 
ATOM     15  C8  UNL A   1      -7.076  -3.802 -14.884  0.00  0.00    +0.026 C 
ATOM     16  C9  UNL A   1      -6.217  -4.967 -15.343  0.00  0.00    -0.026 C 
ATOM     17  C10 UNL A   1      -4.891  -5.101 -14.614  0.00  0.00    +0.026 C 
ATOM     18  C11 UNL A   1      -4.932  -4.385 -13.260  0.00  0.00    +0.105 C 
ATOM     19  C12 UNL A   1      -6.253  -5.363 -16.806  0.00  0.00    +0.007 C 
ATOM     20  C13 UNL A   1      -6.930  -6.229 -15.787  0.00  0.00    +0.007 C 
ENDBRANCH   6  13
BRANCH  11  21
ATOM     21  C18 UNL A   1      -1.986  -1.170 -14.690  0.00  0.00    +0.034 A 
ATOM     22  C19 UNL A   1      -2.281  -1.403 -16.043  0.00  0.00    +0.026 A 
ATOM     23  C20 UNL A   1      -1.314  -1.248 -17.041  0.00  0.00    -0.047 A 
ATOM     24  C21 UNL A   1      -0.029  -0.833 -16.676  0.00  0.00    +0.026 A 
ATOM     25  C22 UNL A   1       0.318  -0.602 -15.337  0.00  0.00    +0.032 A 
ATOM     26  C23 UNL A   1      -0.680  -0.782 -14.363  0.00  0.00    +0.046 A 
ATOM     27  C29 UNL A   1      -1.667  -1.452 -18.483  0.00  0.00    +0.044 C 
BRANCH  25  28
ATOM     28  N6  UNL A   1       1.638  -0.196 -15.039  0.00  0.00    -0.330 N 
ATOM     29  C24 UNL A   1       2.294   0.673 -16.029  0.00  0.00    +0.111 C 
ATOM     30  C25 UNL A   1       3.782   0.726 -15.727  0.00  0.00    +0.094 C 
ATOM     31  C26 UNL A   1       3.991   1.178 -14.299  0.00  0.00    +0.252 C 
ATOM     32  C27 UNL A   1       3.242   0.341 -13.285  0.00  0.00    +0.094 C 
ATOM     33  C28 UNL A   1       1.768   0.281 -13.650  0.00  0.00    +0.111 C 
ATOM     34  F1  UNL A   1       5.318   1.150 -14.009  0.00  0.00    -0.206 F 
ATOM     35  F2  UNL A   1       3.609   2.478 -14.178  0.00  0.00    -0.206 F 
ENDBRANCH  25  28
ENDBRANCH  11  21
BRANCH   4  36
ATOM     36  N2  UNL A   1      -7.704  -2.317  -9.249  0.00  0.00    -0.220 N 
ATOM     37  H15 UNL A   1      -7.386  -2.710  -8.360  0.00  0.00    +0.173 HD
BRANCH  36  38
ATOM     38  S1  UNL A   1      -9.074  -1.374  -9.001  0.00  0.00    +0.045 S 
ATOM     39  O2  UNL A   1      -8.912  -0.088  -9.640  0.00  0.00    -0.155 OA
ATOM     40  O3  UNL A   1      -9.347  -1.470  -7.582  0.00  0.00    -0.155 OA
BRANCH  38  41
ATOM     41  C14 UNL A   1     -10.336  -2.295  -9.857  0.00  0.00    +0.216 C 
BRANCH  41  42
ATOM     42  C15 UNL A   1      -9.796  -3.565 -10.472  0.00  0.00    +0.180 C 
BRANCH  42  43
ATOM     43  O1  UNL A   1      -9.544  -4.510  -9.434  0.00  0.00    -0.393 OA
ATOM     44  H20 UNL A   1      -9.316  -5.355  -9.861  0.00  0.00    +0.209 HD
ENDBRANCH  42  43
ENDBRANCH  41  42
ENDBRANCH  38  41
ENDBRANCH  36  38
ENDBRANCH   4  36
TORSDOF 8
ENDMDL
MODEL 5
REMARK VINA RESULT:    -7.688      0.729      1.380
REMARK INTER + INTRA:         -13.123
REMARK INTER:                 -11.452
REMARK INTRA:                  -1.671
REMARK UNBOUND:                -2.063
REMARK  Name = agan5
REMARK  9 active torsions:
REMARK  status: ('A' for Active; 'I' for Inactive)
REMARK    1  A    between atoms: C4_4  and  N2_15
REMARK    2  A    between atoms: C6_6  and  N1_7
REMARK    3  A    between atoms: N2_15  and  S1_16
REMARK    4  A    between atoms: S1_16  and  C14_17
REMARK    5  A    between atoms: C14_17  and  C15_18
REMARK    6  A    between atoms: C15_18  and  O1_19
REMARK    7  A    between atoms: N5_26  and  C18_27
REMARK    8  A    between atoms: C20_29  and  C29_41
REMARK    9  A    between atoms: C22_31  and  N6_33
REMARK                            x       y       z     vdW  Elec       q    Type
REMARK                         _______ _______ _______ _____ _____    ______ ____
ROOT
ATOM      1  C1  UNL A   1      -2.561  -0.461 -12.925  0.00  0.00    +0.061 A 
ATOM      2  C2  UNL A   1      -1.740   0.518 -12.344  0.00  0.00    +0.080 A 
ATOM      3  C3  UNL A   1      -0.712   1.082 -13.086  0.00  0.00    +0.053 A 
ATOM      4  C4  UNL A   1      -0.434   0.695 -14.396  0.00  0.00    +0.051 A 
ATOM      5  C5  UNL A   1      -1.262  -0.239 -15.001  0.00  0.00    +0.048 A 
ATOM      6  C6  UNL A   1      -2.308  -0.850 -14.286  0.00  0.00    +0.044 A 
ATOM      7  N3  UNL A   1      -1.887   0.955 -11.091  0.00  0.00    -0.235 NA
ATOM      8  C16 UNL A   1      -2.866   0.404 -10.374  0.00  0.00    +0.224 A 
ATOM      9  N4  UNL A   1      -3.716  -0.533 -10.793  0.00  0.00    -0.220 NA
ATOM     10  C17 UNL A   1      -3.570  -0.969 -12.060  0.00  0.00    +0.136 A 
ATOM     11  N5  UNL A   1      -4.465  -1.942 -12.566  0.00  0.00    -0.299 N 
ATOM     12  H22 UNL A   1      -4.085  -2.340 -13.428  0.00  0.00    +0.154 HD
ENDROOT
BRANCH   6  13
ATOM     13  N1  UNL A   1      -3.117  -1.841 -14.912  0.00  0.00    -0.329 N 
ATOM     14  C7  UNL A   1      -2.356  -2.991 -15.471  0.00  0.00    +0.105 C 
ATOM     15  C8  UNL A   1      -2.464  -3.090 -16.997  0.00  0.00    +0.026 C 
ATOM     16  C9  UNL A   1      -3.915  -3.138 -17.445  0.00  0.00    -0.026 C 
ATOM     17  C10 UNL A   1      -4.866  -2.311 -16.598  0.00  0.00    +0.026 C 
ATOM     18  C11 UNL A   1      -4.113  -1.223 -15.825  0.00  0.00    +0.105 C 
ATOM     19  C12 UNL A   1      -4.449  -4.426 -18.040  0.00  0.00    +0.007 C 
ATOM     20  C13 UNL A   1      -4.183  -3.252 -18.933  0.00  0.00    +0.007 C 
ENDBRANCH   6  13
BRANCH  11  21
ATOM     21  C18 UNL A   1      -5.550  -2.642 -12.018  0.00  0.00    +0.034 A 
ATOM     22  C19 UNL A   1      -5.737  -3.981 -12.398  0.00  0.00    +0.026 A 
ATOM     23  C20 UNL A   1      -6.810  -4.737 -11.915  0.00  0.00    -0.047 A 
ATOM     24  C21 UNL A   1      -7.704  -4.142 -11.019  0.00  0.00    +0.026 A 
ATOM     25  C22 UNL A   1      -7.568  -2.804 -10.621  0.00  0.00    +0.032 A 
ATOM     26  C23 UNL A   1      -6.483  -2.075 -11.140  0.00  0.00    +0.046 A 
ATOM     27  C29 UNL A   1      -6.958  -6.179 -12.294  0.00  0.00    +0.044 C 
BRANCH  25  28
ATOM     28  N6  UNL A   1      -8.514  -2.265  -9.722  0.00  0.00    -0.330 N 
ATOM     29  C24 UNL A   1      -7.992  -1.365  -8.682  0.00  0.00    +0.111 C 
ATOM     30  C25 UNL A   1      -9.062  -1.163  -7.624  0.00  0.00    +0.094 C 
ATOM     31  C26 UNL A   1     -10.327  -0.653  -8.277  0.00  0.00    +0.252 C 
ATOM     32  C27 UNL A   1     -10.817  -1.529  -9.410  0.00  0.00    +0.094 C 
ATOM     33  C28 UNL A   1      -9.702  -1.739 -10.421  0.00  0.00    +0.111 C 
ATOM     34  F1  UNL A   1     -11.305  -0.545  -7.340  0.00  0.00    -0.206 F 
ATOM     35  F2  UNL A   1     -10.116   0.608  -8.743  0.00  0.00    -0.206 F 
ENDBRANCH  25  28
ENDBRANCH  11  21
BRANCH   4  36
ATOM     36  N2  UNL A   1       0.593   1.412 -15.093  0.00  0.00    -0.220 N 
ATOM     37  H15 UNL A   1       0.409   2.403 -15.264  0.00  0.00    +0.173 HD
BRANCH  36  38
ATOM     38  S1  UNL A   1       2.229   1.178 -14.784  0.00  0.00    +0.045 S 
ATOM     39  O2  UNL A   1       2.427  -0.069 -14.081  0.00  0.00    -0.155 OA
ATOM     40  O3  UNL A   1       2.690   2.431 -14.221  0.00  0.00    -0.155 OA
BRANCH  38  41
ATOM     41  C14 UNL A   1       2.914   1.038 -16.423  0.00  0.00    +0.216 C 
BRANCH  41  42
ATOM     42  C15 UNL A   1       2.154   0.048 -17.275  0.00  0.00    +0.180 C 
BRANCH  42  43
ATOM     43  O1  UNL A   1       1.781   0.680 -18.497  0.00  0.00    -0.393 OA
ATOM     44  H20 UNL A   1       0.922   0.306 -18.765  0.00  0.00    +0.209 HD
ENDBRANCH  42  43
ENDBRANCH  41  42
ENDBRANCH  38  41
ENDBRANCH  36  38
ENDBRANCH   4  36
TORSDOF 8
ENDMDL
MODEL 6
REMARK VINA RESULT:    -7.575      2.563      3.112
REMARK INTER + INTRA:         -12.960
REMARK INTER:                 -11.879
REMARK INTRA:                  -1.082
REMARK UNBOUND:                -2.063
REMARK  Name = agan5
REMARK  9 active torsions:
REMARK  status: ('A' for Active; 'I' for Inactive)
REMARK    1  A    between atoms: C4_4  and  N2_15
REMARK    2  A    between atoms: C6_6  and  N1_7
REMARK    3  A    between atoms: N2_15  and  S1_16
REMARK    4  A    between atoms: S1_16  and  C14_17
REMARK    5  A    between atoms: C14_17  and  C15_18
REMARK    6  A    between atoms: C15_18  and  O1_19
REMARK    7  A    between atoms: N5_26  and  C18_27
REMARK    8  A    between atoms: C20_29  and  C29_41
REMARK    9  A    between atoms: C22_31  and  N6_33
REMARK                            x       y       z     vdW  Elec       q    Type
REMARK                         _______ _______ _______ _____ _____    ______ ____
ROOT
ATOM      1  C1  UNL A   1      -0.970  -0.767 -14.064  0.00  0.00    +0.061 A 
ATOM      2  C2  UNL A   1       0.300  -0.658 -13.475  0.00  0.00    +0.080 A 
ATOM      3  C3  UNL A   1       1.435  -0.757 -14.266  0.00  0.00    +0.053 A 
ATOM      4  C4  UNL A   1       1.375  -0.992 -15.639  0.00  0.00    +0.051 A 
ATOM      5  C5  UNL A   1       0.128  -1.059 -16.245  0.00  0.00    +0.048 A 
ATOM      6  C6  UNL A   1      -1.052  -0.980 -15.484  0.00  0.00    +0.044 A 
ATOM      7  N3  UNL A   1       0.492  -0.459 -12.170  0.00  0.00    -0.235 NA
ATOM      8  C16 UNL A   1      -0.598  -0.377 -11.407  0.00  0.00    +0.224 A 
ATOM      9  N4  UNL A   1      -1.859  -0.465 -11.828  0.00  0.00    -0.220 NA
ATOM     10  C17 UNL A   1      -2.052  -0.661 -13.147  0.00  0.00    +0.136 A 
ATOM     11  N5  UNL A   1      -3.373  -0.732 -13.652  0.00  0.00    -0.299 N 
ATOM     12  H22 UNL A   1      -3.356  -1.120 -14.598  0.00  0.00    +0.154 HD
ENDROOT
BRANCH   6  13
ATOM     13  N1  UNL A   1      -2.321  -1.098 -16.120  0.00  0.00    -0.329 N 
ATOM     14  C7  UNL A   1      -2.596  -2.442 -16.696  0.00  0.00    +0.105 C 
ATOM     15  C8  UNL A   1      -2.732  -2.418 -18.222  0.00  0.00    +0.026 C 
ATOM     16  C9  UNL A   1      -3.786  -1.419 -18.667  0.00  0.00    -0.026 C 
ATOM     17  C10 UNL A   1      -3.877  -0.170 -17.806  0.00  0.00    +0.026 C 
ATOM     18  C11 UNL A   1      -2.580   0.054 -17.022  0.00  0.00    +0.105 C 
ATOM     19  C12 UNL A   1      -5.072  -1.943 -19.275  0.00  0.00    +0.007 C 
ATOM     20  C13 UNL A   1      -4.046  -1.293 -20.155  0.00  0.00    +0.007 C 
ENDBRANCH   6  13
BRANCH  11  21
ATOM     21  C18 UNL A   1      -4.644  -0.665 -13.061  0.00  0.00    +0.034 A 
ATOM     22  C19 UNL A   1      -5.764  -0.570 -13.903  0.00  0.00    +0.026 A 
ATOM     23  C20 UNL A   1      -7.060  -0.473 -13.388  0.00  0.00    -0.047 A 
ATOM     24  C21 UNL A   1      -7.238  -0.489 -12.002  0.00  0.00    +0.026 A 
ATOM     25  C22 UNL A   1      -6.150  -0.566 -11.120  0.00  0.00    +0.032 A 
ATOM     26  C23 UNL A   1      -4.862  -0.650 -11.677  0.00  0.00    +0.046 A 
ATOM     27  C29 UNL A   1      -8.243  -0.426 -14.307  0.00  0.00    +0.044 C 
BRANCH  25  28
ATOM     28  N6  UNL A   1      -6.403  -0.566  -9.730  0.00  0.00    -0.330 N 
ATOM     29  C24 UNL A   1      -6.704  -1.870  -9.119  0.00  0.00    +0.111 C 
ATOM     30  C25 UNL A   1      -7.276  -1.642  -7.730  0.00  0.00    +0.094 C 
ATOM     31  C26 UNL A   1      -6.311  -0.807  -6.918  0.00  0.00    +0.252 C 
ATOM     32  C27 UNL A   1      -5.927   0.495  -7.588  0.00  0.00    +0.094 C 
ATOM     33  C28 UNL A   1      -5.402   0.221  -8.987  0.00  0.00    +0.111 C 
ATOM     34  F1  UNL A   1      -6.859  -0.541  -5.704  0.00  0.00    -0.206 F 
ATOM     35  F2  UNL A   1      -5.187  -1.533  -6.670  0.00  0.00    -0.206 F 
ENDBRANCH  25  28
ENDBRANCH  11  21
BRANCH   4  36
ATOM     36  N2  UNL A   1       2.609  -0.983 -16.367  0.00  0.00    -0.220 N 
ATOM     37  H15 UNL A   1       2.699  -1.687 -17.103  0.00  0.00    +0.173 HD
BRANCH  36  38
ATOM     38  S1  UNL A   1       3.373   0.439 -16.837  0.00  0.00    +0.045 S 
ATOM     39  O2  UNL A   1       2.760   0.956 -18.039  0.00  0.00    -0.155 OA
ATOM     40  O3  UNL A   1       4.789   0.138 -16.794  0.00  0.00    -0.155 OA
BRANCH  38  41
ATOM     41  C14 UNL A   1       3.012   1.536 -15.480  0.00  0.00    +0.216 C 
BRANCH  41  42
ATOM     42  C15 UNL A   1       4.131   1.576 -14.466  0.00  0.00    +0.180 C 
BRANCH  42  43
ATOM     43  O1  UNL A   1       3.793   2.505 -13.440  0.00  0.00    -0.393 OA
ATOM     44  H20 UNL A   1       4.599   2.666 -12.917  0.00  0.00    +0.209 HD
ENDBRANCH  42  43
ENDBRANCH  41  42
ENDBRANCH  38  41
ENDBRANCH  36  38
ENDBRANCH   4  36
TORSDOF 8
ENDMDL
MODEL 7
REMARK VINA RESULT:    -7.433      5.537      9.523
REMARK INTER + INTRA:         -12.755
REMARK INTER:                 -11.050
REMARK INTRA:                  -1.706
REMARK UNBOUND:                -2.063
REMARK  Name = agan5
REMARK  9 active torsions:
REMARK  status: ('A' for Active; 'I' for Inactive)
REMARK    1  A    between atoms: C4_4  and  N2_15
REMARK    2  A    between atoms: C6_6  and  N1_7
REMARK    3  A    between atoms: N2_15  and  S1_16
REMARK    4  A    between atoms: S1_16  and  C14_17
REMARK    5  A    between atoms: C14_17  and  C15_18
REMARK    6  A    between atoms: C15_18  and  O1_19
REMARK    7  A    between atoms: N5_26  and  C18_27
REMARK    8  A    between atoms: C20_29  and  C29_41
REMARK    9  A    between atoms: C22_31  and  N6_33
REMARK                            x       y       z     vdW  Elec       q    Type
REMARK                         _______ _______ _______ _____ _____    ______ ____
ROOT
ATOM      1  C1  UNL A   1      -4.422  -0.985 -11.992  0.00  0.00    +0.061 A 
ATOM      2  C2  UNL A   1      -4.593  -0.475 -10.695  0.00  0.00    +0.080 A 
ATOM      3  C3  UNL A   1      -5.719  -0.822  -9.963  0.00  0.00    +0.053 A 
ATOM      4  C4  UNL A   1      -6.722  -1.645 -10.474  0.00  0.00    +0.051 A 
ATOM      5  C5  UNL A   1      -6.548  -2.193 -11.737  0.00  0.00    +0.048 A 
ATOM      6  C6  UNL A   1      -5.431  -1.860 -12.524  0.00  0.00    +0.044 A 
ATOM      7  N3  UNL A   1      -3.719   0.342 -10.103  0.00  0.00    -0.235 NA
ATOM      8  C16 UNL A   1      -2.643   0.686 -10.811  0.00  0.00    +0.224 A 
ATOM      9  N4  UNL A   1      -2.354   0.282 -12.047  0.00  0.00    -0.220 NA
ATOM     10  C17 UNL A   1      -3.234  -0.547 -12.641  0.00  0.00    +0.136 A 
ATOM     11  N5  UNL A   1      -2.962  -1.030 -13.944  0.00  0.00    -0.299 N 
ATOM     12  H22 UNL A   1      -3.812  -1.434 -14.343  0.00  0.00    +0.154 HD
ENDROOT
BRANCH   6  13
ATOM     13  N1  UNL A   1      -5.296  -2.397 -13.836  0.00  0.00    -0.329 N 
ATOM     14  C7  UNL A   1      -6.370  -1.987 -14.780  0.00  0.00    +0.105 C 
ATOM     15  C8  UNL A   1      -7.227  -3.165 -15.255  0.00  0.00    +0.026 C 
ATOM     16  C9  UNL A   1      -6.369  -4.261 -15.863  0.00  0.00    -0.026 C 
ATOM     17  C10 UNL A   1      -5.009  -4.435 -15.210  0.00  0.00    +0.026 C 
ATOM     18  C11 UNL A   1      -4.999  -3.853 -13.793  0.00  0.00    +0.105 C 
ATOM     19  C12 UNL A   1      -6.466  -4.517 -17.354  0.00  0.00    +0.007 C 
ATOM     20  C13 UNL A   1      -7.080  -5.491 -16.394  0.00  0.00    +0.007 C 
ENDBRANCH   6  13
BRANCH  11  21
ATOM     21  C18 UNL A   1      -1.918  -0.822 -14.859  0.00  0.00    +0.034 A 
ATOM     22  C19 UNL A   1      -2.167  -1.069 -16.218  0.00  0.00    +0.026 A 
ATOM     23  C20 UNL A   1      -1.170  -0.910 -17.186  0.00  0.00    -0.047 A 
ATOM     24  C21 UNL A   1       0.097  -0.477 -16.784  0.00  0.00    +0.026 A 
ATOM     25  C22 UNL A   1       0.398  -0.232 -15.436  0.00  0.00    +0.032 A 
ATOM     26  C23 UNL A   1      -0.628  -0.416 -14.493  0.00  0.00    +0.046 A 
ATOM     27  C29 UNL A   1      -1.475  -1.130 -18.637  0.00  0.00    +0.044 C 
BRANCH  25  28
ATOM     28  N6  UNL A   1       1.703   0.193 -15.100  0.00  0.00    -0.330 N 
ATOM     29  C24 UNL A   1       2.156   1.456 -15.703  0.00  0.00    +0.111 C 
ATOM     30  C25 UNL A   1       3.659   1.577 -15.518  0.00  0.00    +0.094 C 
ATOM     31  C26 UNL A   1       3.997   1.459 -14.049  0.00  0.00    +0.252 C 
ATOM     32  C27 UNL A   1       3.452   0.204 -13.403  0.00  0.00    +0.094 C 
ATOM     33  C28 UNL A   1       1.956   0.102 -13.650  0.00  0.00    +0.111 C 
ATOM     34  F1  UNL A   1       5.347   1.492 -13.894  0.00  0.00    -0.206 F 
ATOM     35  F2  UNL A   1       3.519   2.548 -13.387  0.00  0.00    -0.206 F 
ENDBRANCH  25  28
ENDBRANCH  11  21
BRANCH   4  36
ATOM     36  N2  UNL A   1      -7.792  -2.007  -9.594  0.00  0.00    -0.220 N 
ATOM     37  H15 UNL A   1      -7.621  -1.860  -8.597  0.00  0.00    +0.173 HD
BRANCH  36  38
ATOM     38  S1  UNL A   1      -9.405  -1.690  -9.951  0.00  0.00    +0.045 S 
ATOM     39  O2  UNL A   1     -10.220  -2.838  -9.621  0.00  0.00    -0.155 OA
ATOM     40  O3  UNL A   1      -9.394  -1.147 -11.294  0.00  0.00    -0.155 OA
BRANCH  38  41
ATOM     41  C14 UNL A   1      -9.792  -0.359  -8.832  0.00  0.00    +0.216 C 
BRANCH  41  42
ATOM     42  C15 UNL A   1     -10.239  -0.862  -7.480  0.00  0.00    +0.180 C 
BRANCH  42  43
ATOM     43  O1  UNL A   1      -9.199  -1.658  -6.916  0.00  0.00    -0.393 OA
ATOM     44  H20 UNL A   1      -8.828  -1.160  -6.166  0.00  0.00    +0.209 HD
ENDBRANCH  42  43
ENDBRANCH  41  42
ENDBRANCH  38  41
ENDBRANCH  36  38
ENDBRANCH   4  36
TORSDOF 8
ENDMDL
MODEL 8
REMARK VINA RESULT:    -7.380      5.914      9.592
REMARK INTER + INTRA:         -12.679
REMARK INTER:                 -11.414
REMARK INTRA:                  -1.265
REMARK UNBOUND:                -2.063
REMARK  Name = agan5
REMARK  9 active torsions:
REMARK  status: ('A' for Active; 'I' for Inactive)
REMARK    1  A    between atoms: C4_4  and  N2_15
REMARK    2  A    between atoms: C6_6  and  N1_7
REMARK    3  A    between atoms: N2_15  and  S1_16
REMARK    4  A    between atoms: S1_16  and  C14_17
REMARK    5  A    between atoms: C14_17  and  C15_18
REMARK    6  A    between atoms: C15_18  and  O1_19
REMARK    7  A    between atoms: N5_26  and  C18_27
REMARK    8  A    between atoms: C20_29  and  C29_41
REMARK    9  A    between atoms: C22_31  and  N6_33
REMARK                            x       y       z     vdW  Elec       q    Type
REMARK                         _______ _______ _______ _____ _____    ______ ____
ROOT
ATOM      1  C1  UNL A   1      -5.332  -0.809 -10.487  0.00  0.00    +0.061 A 
ATOM      2  C2  UNL A   1      -5.369  -0.118  -9.265  0.00  0.00    +0.080 A 
ATOM      3  C3  UNL A   1      -6.485  -0.227  -8.448  0.00  0.00    +0.053 A 
ATOM      4  C4  UNL A   1      -7.603  -0.981  -8.803  0.00  0.00    +0.051 A 
ATOM      5  C5  UNL A   1      -7.566  -1.705  -9.986  0.00  0.00    +0.048 A 
ATOM      6  C6  UNL A   1      -6.463  -1.616 -10.855  0.00  0.00    +0.044 A 
ATOM      7  N3  UNL A   1      -4.376   0.656  -8.825  0.00  0.00    -0.235 NA
ATOM      8  C16 UNL A   1      -3.308   0.772  -9.616  0.00  0.00    +0.224 A 
ATOM      9  N4  UNL A   1      -3.138   0.179 -10.797  0.00  0.00    -0.220 NA
ATOM     10  C17 UNL A   1      -4.140  -0.606 -11.238  0.00  0.00    +0.136 A 
ATOM     11  N5  UNL A   1      -3.998  -1.284 -12.472  0.00  0.00    -0.299 N 
ATOM     12  H22 UNL A   1      -4.911  -1.629 -12.779  0.00  0.00    +0.154 HD
ENDROOT
BRANCH   6  13
ATOM     13  N1  UNL A   1      -6.465  -2.331 -12.087  0.00  0.00    -0.329 N 
ATOM     14  C7  UNL A   1      -7.494  -1.873 -13.060  0.00  0.00    +0.105 C 
ATOM     15  C8  UNL A   1      -8.546  -2.946 -13.361  0.00  0.00    +0.026 C 
ATOM     16  C9  UNL A   1      -7.899  -4.236 -13.833  0.00  0.00    -0.026 C 
ATOM     17  C10 UNL A   1      -6.560  -4.546 -13.184  0.00  0.00    +0.026 C 
ATOM     18  C11 UNL A   1      -6.404  -3.797 -11.857  0.00  0.00    +0.105 C 
ATOM     19  C12 UNL A   1      -8.091  -4.660 -15.276  0.00  0.00    +0.007 C 
ATOM     20  C13 UNL A   1      -8.816  -5.390 -14.186  0.00  0.00    +0.007 C 
ENDBRANCH   6  13
BRANCH  11  21
ATOM     21  C18 UNL A   1      -2.991  -1.325 -13.449  0.00  0.00    +0.034 A 
ATOM     22  C19 UNL A   1      -3.142  -2.216 -14.523  0.00  0.00    +0.026 A 
ATOM     23  C20 UNL A   1      -2.169  -2.333 -15.520  0.00  0.00    -0.047 A 
ATOM     24  C21 UNL A   1      -1.029  -1.527 -15.447  0.00  0.00    +0.026 A 
ATOM     25  C22 UNL A   1      -0.826  -0.632 -14.386  0.00  0.00    +0.032 A 
ATOM     26  C23 UNL A   1      -1.822  -0.554 -13.397  0.00  0.00    +0.046 A 
ATOM     27  C29 UNL A   1      -2.377  -3.254 -16.684  0.00  0.00    +0.044 C 
BRANCH  25  28
ATOM     28  N6  UNL A   1       0.355   0.144 -14.371  0.00  0.00    -0.330 N 
ATOM     29  C24 UNL A   1       1.373  -0.233 -13.379  0.00  0.00    +0.111 C 
ATOM     30  C25 UNL A   1       2.393   0.888 -13.270  0.00  0.00    +0.094 C 
ATOM     31  C26 UNL A   1       2.967   1.180 -14.639  0.00  0.00    +0.252 C 
ATOM     32  C27 UNL A   1       1.915   1.478 -15.684  0.00  0.00    +0.094 C 
ATOM     33  C28 UNL A   1       0.895   0.353 -15.727  0.00  0.00    +0.111 C 
ATOM     34  F1  UNL A   1       3.822   2.234 -14.551  0.00  0.00    -0.206 F 
ATOM     35  F2  UNL A   1       3.720   0.122 -15.047  0.00  0.00    -0.206 F 
ENDBRANCH  25  28
ENDBRANCH  11  21
BRANCH   4  36
ATOM     36  N2  UNL A   1      -8.657  -1.093  -7.839  0.00  0.00    -0.220 N 
ATOM     37  H15 UNL A   1      -8.479  -0.664  -6.929  0.00  0.00    +0.173 HD
BRANCH  36  38
ATOM     38  S1  UNL A   1     -10.279  -0.917  -8.247  0.00  0.00    +0.045 S 
ATOM     39  O2  UNL A   1     -11.077  -0.762  -7.051  0.00  0.00    -0.155 OA
ATOM     40  O3  UNL A   1     -10.550  -1.985  -9.188  0.00  0.00    -0.155 OA
BRANCH  38  41
ATOM     41  C14 UNL A   1     -10.284   0.617  -9.154  0.00  0.00    +0.216 C 
BRANCH  41  42
ATOM     42  C15 UNL A   1     -11.394   1.539  -8.707  0.00  0.00    +0.180 C 
BRANCH  42  43
ATOM     43  O1  UNL A   1     -10.925   2.884  -8.756  0.00  0.00    -0.393 OA
ATOM     44  H20 UNL A   1     -11.290   3.347  -7.981  0.00  0.00    +0.209 HD
ENDBRANCH  42  43
ENDBRANCH  41  42
ENDBRANCH  38  41
ENDBRANCH  36  38
ENDBRANCH   4  36
TORSDOF 8
ENDMDL
MODEL 9
REMARK VINA RESULT:    -7.338      2.189      2.972
REMARK INTER + INTRA:         -12.618
REMARK INTER:                 -10.461
REMARK INTRA:                  -2.157
REMARK UNBOUND:                -2.063
REMARK  Name = agan5
REMARK  9 active torsions:
REMARK  status: ('A' for Active; 'I' for Inactive)
REMARK    1  A    between atoms: C4_4  and  N2_15
REMARK    2  A    between atoms: C6_6  and  N1_7
REMARK    3  A    between atoms: N2_15  and  S1_16
REMARK    4  A    between atoms: S1_16  and  C14_17
REMARK    5  A    between atoms: C14_17  and  C15_18
REMARK    6  A    between atoms: C15_18  and  O1_19
REMARK    7  A    between atoms: N5_26  and  C18_27
REMARK    8  A    between atoms: C20_29  and  C29_41
REMARK    9  A    between atoms: C22_31  and  N6_33
REMARK                            x       y       z     vdW  Elec       q    Type
REMARK                         _______ _______ _______ _____ _____    ______ ____
ROOT
ATOM      1  C1  UNL A   1      -2.399  -0.421 -12.766  0.00  0.00    +0.061 A 
ATOM      2  C2  UNL A   1      -1.387  -0.035 -11.874  0.00  0.00    +0.080 A 
ATOM      3  C3  UNL A   1      -0.061  -0.069 -12.281  0.00  0.00    +0.053 A 
ATOM      4  C4  UNL A   1       0.322  -0.504 -13.549  0.00  0.00    +0.051 A 
ATOM      5  C5  UNL A   1      -0.668  -0.848 -14.459  0.00  0.00    +0.048 A 
ATOM      6  C6  UNL A   1      -2.025  -0.843 -14.089  0.00  0.00    +0.044 A 
ATOM      7  N3  UNL A   1      -1.621   0.375 -10.625  0.00  0.00    -0.235 NA
ATOM      8  C16 UNL A   1      -2.894   0.397 -10.229  0.00  0.00    +0.224 A 
ATOM      9  N4  UNL A   1      -3.952   0.056 -10.965  0.00  0.00    -0.220 NA
ATOM     10  C17 UNL A   1      -3.714  -0.352 -12.226  0.00  0.00    +0.136 A 
ATOM     11  N5  UNL A   1      -4.804  -0.697 -13.061  0.00  0.00    -0.299 N 
ATOM     12  H22 UNL A   1      -4.461  -1.208 -13.877  0.00  0.00    +0.154 HD
ENDROOT
BRANCH   6  13
ATOM     13  N1  UNL A   1      -3.021  -1.244 -15.024  0.00  0.00    -0.329 N 
ATOM     14  C7  UNL A   1      -3.023  -2.699 -15.332  0.00  0.00    +0.105 C 
ATOM     15  C8  UNL A   1      -2.675  -2.998 -16.795  0.00  0.00    +0.026 C 
ATOM     16  C9  UNL A   1      -3.593  -2.248 -17.744  0.00  0.00    -0.026 C 
ATOM     17  C10 UNL A   1      -4.021  -0.874 -17.257  0.00  0.00    +0.026 C 
ATOM     18  C11 UNL A   1      -3.051  -0.337 -16.200  0.00  0.00    +0.105 C 
ATOM     19  C12 UNL A   1      -4.591  -3.040 -18.567  0.00  0.00    +0.007 C 
ATOM     20  C13 UNL A   1      -3.381  -2.455 -19.231  0.00  0.00    +0.007 C 
ENDBRANCH   6  13
BRANCH  11  21
ATOM     21  C18 UNL A   1      -6.194  -0.743 -12.874  0.00  0.00    +0.034 A 
ATOM     22  C19 UNL A   1      -6.923   0.449 -13.018  0.00  0.00    +0.026 A 
ATOM     23  C20 UNL A   1      -8.307   0.488 -12.822  0.00  0.00    -0.047 A 
ATOM     24  C21 UNL A   1      -8.976  -0.695 -12.492  0.00  0.00    +0.026 A 
ATOM     25  C22 UNL A   1      -8.289  -1.907 -12.323  0.00  0.00    +0.032 A 
ATOM     26  C23 UNL A   1      -6.896  -1.901 -12.517  0.00  0.00    +0.046 A 
ATOM     27  C29 UNL A   1      -9.071   1.761 -13.031  0.00  0.00    +0.044 C 
BRANCH  25  28
ATOM     28  N6  UNL A   1      -9.027  -3.062 -11.980  0.00  0.00    -0.330 N 
ATOM     29  C24 UNL A   1      -8.248  -4.277 -11.698  0.00  0.00    +0.111 C 
ATOM     30  C25 UNL A   1      -9.186  -5.471 -11.689  0.00  0.00    +0.094 C 
ATOM     31  C26 UNL A   1     -10.300  -5.229 -10.695  0.00  0.00    +0.252 C 
ATOM     32  C27 UNL A   1     -11.045  -3.933 -10.927  0.00  0.00    +0.094 C 
ATOM     33  C28 UNL A   1     -10.063  -2.773 -10.971  0.00  0.00    +0.111 C 
ATOM     34  F1  UNL A   1     -11.179  -6.265 -10.744  0.00  0.00    -0.206 F 
ATOM     35  F2  UNL A   1      -9.788  -5.234  -9.434  0.00  0.00    -0.206 F 
ENDBRANCH  25  28
ENDBRANCH  11  21
BRANCH   4  36
ATOM     36  N2  UNL A   1       1.711  -0.409 -13.889  0.00  0.00    -0.220 N 
ATOM     37  H15 UNL A   1       2.250  -1.274 -13.811  0.00  0.00    +0.173 HD
BRANCH  36  38
ATOM     38  S1  UNL A   1       2.265   0.495 -15.194  0.00  0.00    +0.045 S 
ATOM     39  O2  UNL A   1       1.402   1.635 -15.407  0.00  0.00    -0.155 OA
ATOM     40  O3  UNL A   1       2.499  -0.469 -16.249  0.00  0.00    -0.155 OA
BRANCH  38  41
ATOM     41  C14 UNL A   1       3.852   1.066 -14.620  0.00  0.00    +0.216 C 
BRANCH  41  42
ATOM     42  C15 UNL A   1       3.753   1.802 -13.305  0.00  0.00    +0.180 C 
BRANCH  42  43
ATOM     43  O1  UNL A   1       3.790   0.854 -12.241  0.00  0.00    -0.393 OA
ATOM     44  H20 UNL A   1       3.993  -0.014 -12.634  0.00  0.00    +0.209 HD
ENDBRANCH  42  43
ENDBRANCH  41  42
ENDBRANCH  38  41
ENDBRANCH  36  38
ENDBRANCH   4  36
TORSDOF 8
ENDMDL
