@<TRIPOS>MOLECULE
agan8
 37 41 0 0 0
SMALL
GASTEIGER

@<TRIPOS>ATOM
      1  C1        -1.5190   -1.0770  -13.3050 C.2     1  UNL1        0.0030
      2  C2        -0.3780   -0.6130  -12.6120 C.2     1  UNL1        0.0120
      3  C3         0.8350   -0.4010  -13.2630 C.2     1  UNL1        0.0250
      4  C4         0.9290   -0.6450  -14.6260 C.2     1  UNL1        0.0500
      5  C5        -0.1880   -1.0950  -15.3330 C.2     1  UNL1        0.0480
      6  C6        -1.4250   -1.3420  -14.7020 C.2     1  UNL1        0.0390
      7  C16       -2.7800   -1.1900  -12.5430 C.2     1  UNL1       -0.0110
      8  C17       -3.4660   -2.4090  -12.4490 C.2     1  UNL1        0.0520
      9  C18       -4.6520   -2.5030  -11.7160 C.2     1  UNL1        0.1220
     10  N3        -5.1520   -1.4320  -11.0650 N.2     1  UNL1       -0.2400
     11  C19       -4.4860   -0.2600  -11.1570 C.2     1  UNL1        0.1130
     12  C20       -3.3160   -0.0910  -11.8720 C.2     1  UNL1        0.0280
     13  N4        -5.3160   -3.7520  -11.6430 N.pl3   1  UNL1       -0.3150
     14  C21       -5.8840   -4.1280  -12.9490 C.3     1  UNL1        0.1120
     15  C22       -6.4080   -5.5520  -12.8690 C.3     1  UNL1        0.0940
     16  C23       -7.3910   -5.6740  -11.7250 C.3     1  UNL1        0.2520
     17  C24       -6.8330   -5.2030  -10.4020 C.3     1  UNL1        0.0940
     18  C25       -6.3040   -3.7850  -10.5490 C.3     1  UNL1        0.1120
     19  F1        -7.7840   -6.9700  -11.6110 F       1  UNL1       -0.2060
     20  F2        -8.5140   -4.9680  -12.0220 F       1  UNL1       -0.2060
     21  N1        -2.5150   -1.8360  -15.4360 N.pl3   1  UNL1       -0.3290
     22  C7        -2.3250   -3.1500  -16.0920 C.3     1  UNL1        0.1050
     23  C8        -2.8280   -3.1460  -17.5410 C.3     1  UNL1        0.0260
     24  C9        -4.2790   -2.7090  -17.6240 C.3     1  UNL1       -0.0260
     25  C10       -4.6690   -1.6440  -16.6110 C.3     1  UNL1        0.0260
     26  C11       -3.4340   -0.8950  -16.0980 C.3     1  UNL1        0.1050
     27  C12       -4.9280   -2.6810  -18.9930 C.3     1  UNL1        0.0070
     28  C13       -5.3290   -3.7340  -18.0050 C.3     1  UNL1        0.0070
     29  N2         2.1780   -0.4370  -15.2740 N.pl3   1  UNL1       -0.2210
     30  H16        2.6400   -1.2510  -15.6780 H       1  UNL1        0.1730
     31  S1         2.4710    0.9720  -16.1460 S.O2    1  UNL1        0.0450
     32  O2         3.7920    1.3960  -15.7290 O.2     1  UNL1       -0.1550
     33  O3         1.3410    1.8670  -16.0360 O.2     1  UNL1       -0.1550
     34  C14        2.6140    0.3910  -17.8280 C.3     1  UNL1        0.2160
     35  C15        4.0530    0.2170  -18.2600 C.3     1  UNL1        0.1800
     36  O1         4.7190   -0.6180  -17.3150 O.3     1  UNL1       -0.3930
     37  H21        5.6740   -0.5360  -17.4860 H       1  UNL1        0.2090
@<TRIPOS>BOND
     1    27    28    1
     2    27    24    1
     3    35    34    1
     4    35    36    1
     5    28    24    1
     6    34    31    1
     7    24    23    1
     8    24    25    1
     9    23    22    1
    10    37    36    1
    11    25    26    1
    12    31    33    2
    13    31    32    2
    14    31    29    1
    15    26    21    1
    16    22    21    1
    17    30    29    1
    18    21     6    1
    19     5     6    1
    20     5     4    2
    21    29     4    1
    22     6     1    2
    23     4     3    1
    24     1     2    1
    25     1     7    1
    26     3     2    2
    27    14    15    1
    28    14    13    1
    29    15    16    1
    30     7     8    2
    31     7    12    1
    32     8     9    1
    33    20    16    1
    34    12    11    2
    35    16    19    1
    36    16    17    1
    37     9    13    1
    38     9    10    2
    39    13    18    1
    40    11    10    1
    41    18    17    1
