@<TRIPOS>MOLECULE
agan4
 41 44 0 0 0
SMALL
GASTEIGER

@<TRIPOS>ATOM
      1  C1        -1.3420   -0.6400  -14.3480 C.2     1  UNL1        0.1540
      2  C2        -2.0230   -0.9530  -13.1560 C.2     1  UNL1        0.1660
      3  N1        -1.4550   -0.7880  -11.9160 N.2     1  UNL1       -0.2440
      4  C3        -0.1920   -0.3090  -11.9230 C.2     1  UNL1        0.1550
      5  C4         0.5170    0.0180  -13.0810 C.2     1  UNL1        0.1400
      6  N2        -0.0630   -0.1640  -14.2810 N.2     1  UNL1       -0.2140
      7  N3         1.8290    0.4930  -12.9630 N.pl3   1  UNL1       -0.3210
      8  H2         1.8300    1.2630  -12.2950 H       1  UNL1        0.1480
      9  N7        -1.9120   -0.7790  -15.6270 N.pl3   1  UNL1       -0.3130
     10  C19       -2.1430    0.5380  -16.2570 C.3     1  UNL1        0.1070
     11  C20       -2.9740    0.3610  -17.5350 C.3     1  UNL1        0.0260
     12  C21       -2.3170   -0.6340  -18.4700 C.3     1  UNL1       -0.0260
     13  C22       -1.9820   -1.9490  -17.7900 C.3     1  UNL1        0.0260
     14  C23       -1.1740   -1.7050  -16.5080 C.3     1  UNL1        0.1070
     15  C24       -1.4060   -0.1230  -19.5650 C.3     1  UNL1        0.0070
     16  C25       -2.7640   -0.6670  -19.9130 C.3     1  UNL1        0.0070
     17  C9        -3.4190   -1.5380  -13.0980 C.2     1  UNL1        0.2710
     18  N4        -3.4510   -2.7220  -12.3850 N.am    1  UNL1       -0.2650
     19  O4        -4.3930   -1.0130  -13.6190 O.2     1  UNL1       -0.2680
     20  H12       -2.5630   -3.0330  -12.0050 H       1  UNL1        0.1570
     21  C10       -4.5310   -3.5510  -12.1000 C.2     1  UNL1        0.1270
     22  C11       -4.8850   -4.6590  -12.8630 C.2     1  UNL1        0.0440
     23  C12       -5.9890   -5.4310  -12.4900 C.2     1  UNL1        0.0070
     24  C13       -6.7190   -5.0820  -11.3640 C.2     1  UNL1        0.0490
     25  C14       -6.2960   -3.9590  -10.6790 C.2     1  UNL1        0.1950
     26  N5        -5.2150   -3.1880  -10.9960 N.2     1  UNL1       -0.2120
     27  S1        -7.1170   -3.4530   -9.1700 S.O2    1  UNL1        0.0760
     28  O2        -6.4850   -4.1340   -8.0620 O.2     1  UNL1       -0.1520
     29  O3        -8.5370   -3.5690   -9.4230 O.2     1  UNL1       -0.1520
     30  N6        -6.7610   -1.7890   -9.0990 N.3     1  UNL1       -0.1830
     31  H16       -5.7650   -1.7110   -9.3400 H       1  UNL1        0.1490
     32  C15       -7.1050   -0.9480   -7.9140 C.3     1  UNL1        0.0320
     33  C16       -6.9630    0.5170   -8.3750 C.3     1  UNL1        0.0290
     34  C17       -6.1660   -1.1720   -6.7280 C.3     1  UNL1        0.0290
     35  C18       -8.5670   -1.1820   -7.5170 C.3     1  UNL1        0.0290
     36  C5         2.6400    0.8340  -14.1620 C.3     1  UNL1        0.0510
     37  C7         2.8320   -0.3860  -15.0780 C.3     1  UNL1        0.0330
     38  C8         2.0630    2.0310  -14.9290 C.3     1  UNL1        0.0330
     39  C6         4.0430    1.2500  -13.6130 C.3     1  UNL1        0.1800
     40  O1         4.2500    0.7360  -12.2960 O.3     1  UNL1       -0.3930
     41  H5         3.3570    0.5460  -11.9450 H       1  UNL1        0.2090
@<TRIPOS>BOND
     1    16    15    1
     2    16    12    1
     3    15    12    1
     4    12    13    1
     5    12    11    1
     6    13    14    1
     7    11    10    1
     8    14     9    1
     9    10     9    1
    10     9     1    1
    11    37    36    1
    12    38    36    1
    13     1     6    2
    14     1     2    1
    15     6     5    1
    16    36    39    1
    17    36     7    1
    18    19    17    2
    19    39    40    1
    20     2    17    1
    21     2     3    2
    22    17    18   am
    23     5     7    1
    24     5     4    2
    25     7     8    1
    26    22    23    1
    27    22    21    2
    28    23    24    2
    29    18    21    1
    30    18    20    1
    31    40    41    1
    32    21    26    1
    33     4     3    1
    34    24    25    1
    35    26    25    2
    36    25    27    1
    37    29    27    2
    38    31    30    1
    39    27    30    1
    40    27    28    2
    41    30    32    1
    42    33    32    1
    43    32    35    1
    44    32    34    1
