@<TRIPOS>MOLECULE
agan7
 42 46 0 0 0
SMALL
GASTEIGER

@<TRIPOS>ATOM
      1  C1        -1.0530   -1.1570  -13.6020 C.2     1  UNL1        0.0410
      2  C2         0.1170   -0.7330  -12.9490 C.2     1  UNL1        0.0150
      3  C3         1.2890   -0.5140  -13.6690 C.2     1  UNL1        0.0250
      4  C4         1.3070   -0.7320  -15.0420 C.2     1  UNL1        0.0480
      5  C5         0.1410   -1.1470  -15.6960 C.2     1  UNL1        0.0290
      6  C6        -1.0680   -1.3650  -14.9960 C.2     1  UNL1       -0.0300
      7  C7        -2.2680   -1.8190  -15.8210 C.3     1  UNL1        0.0200
      8  C8        -2.3790   -1.0580  -17.1550 C.3     1  UNL1        0.0090
      9  C9        -3.6660   -1.4270  -17.8970 C.3     1  UNL1        0.0070
     10  C10       -3.7830   -2.9270  -18.0570 C.3     1  UNL1       -0.0290
     11  C11       -3.6950   -3.6870  -16.7530 C.3     1  UNL1        0.0070
     12  C12       -2.3940   -3.3410  -16.0270 C.3     1  UNL1        0.0090
     13  C13       -4.6960   -3.4610  -19.1360 C.3     1  UNL1        0.0070
     14  C14       -3.2050   -3.5660  -19.3010 C.3     1  UNL1        0.0070
     15  C17       -2.2310   -1.3740  -12.7340 C.2     1  UNL1        0.2500
     16  N2        -2.6620   -0.2280  -12.1110 N.am    1  UNL1       -0.2660
     17  O4        -2.6970   -2.4990  -12.6300 O.2     1  UNL1       -0.2700
     18  H23       -2.1830    0.6440  -12.2900 H       1  UNL1        0.1570
     19  C18       -3.7560   -0.0740  -11.2550 C.2     1  UNL1        0.1310
     20  C19       -3.6450    0.1180   -9.9010 C.2     1  UNL1        0.0670
     21  C20       -4.8300    0.2370   -9.2150 C.2     1  UNL1        0.0450
     22  N3        -6.0280    0.1700   -9.8290 N.2     1  UNL1       -0.2200
     23  C21       -6.0600   -0.0140  -11.1570 C.cat   1  UNL1        0.2200
     24  N4        -4.9400   -0.1400  -11.8860 N.2     1  UNL1       -0.1990
     25  N5        -7.3050   -0.1130  -11.8020 N.pl3   1  UNL1       -0.2990
     26  C22       -8.4050    0.4700  -11.0260 C.3     1  UNL1        0.1140
     27  C23       -9.7350    0.1270  -11.6730 C.3     1  UNL1        0.0940
     28  C24       -9.7180    0.5240  -13.1300 C.3     1  UNL1        0.2520
     29  C25       -8.5700   -0.0920  -13.8940 C.3     1  UNL1        0.0940
     30  C26       -7.2530    0.2560  -13.2190 C.3     1  UNL1        0.1140
     31  F1       -10.8900    0.1550  -13.7100 F       1  UNL1       -0.2060
     32  F2        -9.6580    1.8770  -13.2330 F       1  UNL1       -0.2060
     33  C27       -4.8270    0.4430   -7.7310 C.3     1  UNL1        0.0660
     34  N1         2.5010   -0.5280  -15.8000 N.pl3   1  UNL1       -0.2210
     35  H17        3.3340   -0.9790  -15.4050 H       1  UNL1        0.1730
     36  S1         2.8970    1.0590  -16.2570 S.O2    1  UNL1        0.0450
     37  O2         3.1840    1.0270  -17.6770 O.2     1  UNL1       -0.1550
     38  O3         1.9230    1.9880  -15.7250 O.2     1  UNL1       -0.1550
     39  C15        4.4420    1.3170  -15.3970 C.3     1  UNL1        0.2160
     40  C16        4.2460    1.4150  -13.8970 C.3     1  UNL1        0.1800
     41  O1         3.5840    2.6310  -13.5490 O.3     1  UNL1       -0.3930
     42  H22        2.6660    2.5470  -13.8730 H       1  UNL1        0.2090
@<TRIPOS>BOND
     1    14    13    1
     2    14    10    1
     3    13    10    1
     4    10     9    1
     5    10    11    1
     6     9     8    1
     7    37    36    2
     8     8     7    1
     9    11    12    1
    10    36    34    1
    11    36    38    2
    12    36    39    1
    13    12     7    1
    14     7     6    1
    15    34    35    1
    16    34     4    1
    17     5     4    2
    18     5     6    1
    19    39    40    1
    20     4     3    1
    21     6     1    2
    22    40    41    1
    23    29    30    1
    24    29    28    1
    25    42    41    1
    26    31    28    1
    27     3     2    2
    28     1     2    1
    29     1    15    1
    30    32    28    1
    31    30    25    1
    32    28    27    1
    33    15    17    2
    34    15    16   am
    35    18    16    1
    36    16    19    1
    37    24    19    2
    38    24    23    1
    39    25    23    1
    40    25    26    1
    41    27    26    1
    42    19    20    1
    43    23    22    2
    44    20    21    2
    45    22    21    1
    46    21    33    1
