@<TRIPOS>MOLECULE
agan2
 41 45 0 0 0
SMALL
GASTEIGER

@<TRIPOS>ATOM
      1  C1        -0.9790   -0.7900  -14.7520 C.2     1  UNL1        0.0440
      2  C2        -1.1030   -0.0620  -13.5430 C.2     1  UNL1        0.0580
      3  C3         0.0490    0.4840  -12.9460 C.2     1  UNL1        0.0170
      4  C4         1.3110    0.3160  -13.5190 C.2     1  UNL1        0.0250
      5  C5         1.4430   -0.4120  -14.6950 C.2     1  UNL1        0.0500
      6  C6         0.3100   -0.9480  -15.3080 C.2     1  UNL1        0.0480
      7  N4        -2.1050   -1.3950  -15.3760 N.pl3   1  UNL1       -0.3290
      8  C21       -1.8190   -2.8250  -15.6800 C.3     1  UNL1        0.1050
      9  C22       -2.9760   -3.4380  -16.4750 C.3     1  UNL1        0.0260
     10  C23       -3.1680   -2.7190  -17.8000 C.3     1  UNL1       -0.0260
     11  C24       -2.5750   -1.3230  -17.8490 C.3     1  UNL1        0.0260
     12  C25       -2.7030   -0.6160  -16.4950 C.3     1  UNL1        0.1050
     13  C26       -4.4460   -2.9940  -18.5680 C.3     1  UNL1        0.0070
     14  C27       -3.1440   -3.5340  -19.0770 C.3     1  UNL1        0.0070
     15  C9        -2.4070    0.2060  -12.8330 C.2     1  UNL1        0.2500
     16  N2        -2.4550   -0.1700  -11.5090 N.am    1  UNL1       -0.2810
     17  O4        -3.3260    0.7170  -13.4690 O.2     1  UNL1       -0.2700
     18  H10       -1.5810   -0.5540  -11.1510 H       1  UNL1        0.1550
     19  C10       -3.5210   -0.0640  -10.5950 C.2     1  UNL1        0.0350
     20  C11       -3.3190    0.7550   -9.4810 C.2     1  UNL1        0.0230
     21  C12       -4.3240    0.9110   -8.5300 C.2     1  UNL1        0.0040
     22  C13       -5.5400    0.2490   -8.6930 C.2     1  UNL1        0.0230
     23  C14       -5.7820   -0.5770   -9.8020 C.2     1  UNL1        0.0310
     24  C15       -4.7480   -0.7220  -10.7430 C.2     1  UNL1        0.0460
     25  N3        -7.0320   -1.2240   -9.9060 N.pl3   1  UNL1       -0.3300
     26  C16       -6.9660   -2.4310  -10.7520 C.3     1  UNL1        0.1110
     27  C17       -8.3780   -2.8480  -11.1330 C.3     1  UNL1        0.0940
     28  C18       -9.2170   -3.0180   -9.8860 C.3     1  UNL1        0.2520
     29  C19       -9.2110   -1.8020   -8.9850 C.3     1  UNL1        0.0940
     30  C20       -7.7780   -1.4240   -8.6520 C.3     1  UNL1        0.1110
     31  F1       -10.4970   -3.3030  -10.2460 F       1  UNL1       -0.2060
     32  F2        -8.7750   -4.0980   -9.1900 F       1  UNL1       -0.2060
     33  N1         2.7450   -0.5780  -15.2490 N.pl3   1  UNL1       -0.2210
     34  H4         3.1270   -1.5220  -15.2970 H       1  UNL1        0.1730
     35  S1         3.2990    0.4330  -16.4720 S.O2    1  UNL1        0.0450
     36  O2         2.3400    1.5150  -16.5440 O.2     1  UNL1       -0.1550
     37  O3         3.6090   -0.3560  -17.6440 O.2     1  UNL1       -0.1550
     38  C7         4.8220    1.0910  -15.8150 C.3     1  UNL1        0.2160
     39  C8         4.7070    1.4280  -14.3460 C.3     1  UNL1        0.1800
     40  O1         6.0140    1.5350  -13.7920 O.3     1  UNL1       -0.3930
     41  H9         5.9160    1.6490  -12.8290 H       1  UNL1        0.2090
@<TRIPOS>BOND
     1    14    13    1
     2    14    10    1
     3    13    10    1
     4    11    10    1
     5    11    12    1
     6    10     9    1
     7    37    35    2
     8    36    35    2
     9    12     7    1
    10     9     8    1
    11    35    38    1
    12    35    33    1
    13    38    39    1
    14     8     7    1
    15     7     1    1
    16     6     1    2
    17     6     5    1
    18    34    33    1
    19    33     5    1
    20     1     2    1
    21     5     4    2
    22    39    40    1
    23    40    41    1
    24     2     3    2
    25     2    15    1
    26     4     3    1
    27    17    15    2
    28    15    16   am
    29    16    18    1
    30    16    19    1
    31    27    26    1
    32    27    28    1
    33    26    25    1
    34    24    19    2
    35    24    23    1
    36    19    20    1
    37    31    28    1
    38    25    23    1
    39    25    30    1
    40    28    32    1
    41    28    29    1
    42    23    22    2
    43    20    21    2
    44    29    30    1
    45    22    21    1
