agan6
     RDKit          3D

 70 75  0  0  0  0  0  0  0  0999 V2000
   -0.3132   -1.3697    1.5861 C   0  0  0  0  0  0  0  0  0  0  0  0
   -0.5797   -2.4126    2.4957 C   0  0  0  0  0  0  0  0  0  0  0  0
   -1.6455   -3.2891    2.2967 C   0  0  0  0  0  0  0  0  0  0  0  0
   -2.4572   -3.1324    1.1807 C   0  0  0  0  0  0  0  0  0  0  0  0
   -2.2285   -2.0872    0.2844 C   0  0  0  0  0  0  0  0  0  0  0  0
   -1.1632   -1.1836    0.4648 C   0  0  0  0  0  0  0  0  0  0  0  0
   -0.9942   -0.0866   -0.4053 N   0  0  0  0  0  0  0  0  0  0  0  0
   -1.5738    1.1571    0.1549 C   0  0  0  0  0  0  0  0  0  0  0  0
   -1.5584    2.2808   -0.8867 C   0  0  0  0  0  0  0  0  0  0  0  0
   -2.3752    1.8998   -2.1100 C   0  0  0  0  0  0  0  0  0  0  0  0
   -2.4352    0.4062   -2.3831 C   0  0  0  0  0  0  0  0  0  0  0  0
   -1.1853   -0.3040   -1.8531 C   0  0  0  0  0  0  0  0  0  0  0  0
   -3.6020    2.7224   -2.4504 C   0  0  0  0  0  0  0  0  0  0  0  0
   -2.3647    2.8561   -3.2860 C   0  0  0  0  0  0  0  0  0  0  0  0
   -3.5820   -3.9907    0.9871 N   0  0  0  0  0  0  0  0  0  0  0  0
   -5.0482   -3.5093    1.6866 S   0  0  0  0  0  0  0  0  0  0  0  0
   -5.7772   -2.4844    0.4253 C   0  0  0  0  0  0  0  0  0  0  0  0
   -5.9828   -3.2376   -0.8690 C   0  0  0  0  0  0  0  0  0  0  0  0
   -6.4915   -2.3403   -1.8537 O   0  0  0  0  0  0  0  0  0  0  0  0
   -4.7829   -2.7066    2.8592 O   0  0  0  0  0  0  0  0  0  0  0  0
   -5.8340   -4.7224    1.7842 O   0  0  0  0  0  0  0  0  0  0  0  0
    0.8545   -0.5183    1.8645 C   0  0  0  0  0  0  0  0  0  0  0  0
    2.0787   -0.2955    0.6852 S   0  0  0  0  0  0  0  0  0  0  0  0
    2.9745    0.7157    1.7655 C   0  0  0  0  0  0  0  0  0  0  0  0
    2.2780    0.7609    2.9799 C   0  0  0  0  0  0  0  0  0  0  0  0
    1.0948    0.0423    3.0303 N   0  0  0  0  0  0  0  0  0  0  0  0
    2.8044    1.5095    4.0512 C   0  0  0  0  0  0  0  0  0  0  0  0
    4.0036    2.1988    3.8939 C   0  0  0  0  0  0  0  0  0  0  0  0
    4.6788    2.1471    2.6800 C   0  0  0  0  0  0  0  0  0  0  0  0
    4.1980    1.4117    1.5750 C   0  0  0  0  0  0  0  0  0  0  0  0
    4.9953    1.4563    0.4018 N   0  0  0  0  0  0  0  0  0  0  0  0
    4.3193    2.1069   -0.7300 C   0  0  0  0  0  0  0  0  0  0  0  0
    5.3556    2.3910   -1.8057 C   0  0  0  0  0  0  0  0  0  0  0  0
    6.0712    1.1066   -2.1705 C   0  0  0  0  0  0  0  0  0  0  0  0
    6.6726    0.3844   -0.9825 C   0  0  0  0  0  0  0  0  0  0  0  0
    5.6007    0.1580    0.0719 C   0  0  0  0  0  0  0  0  0  0  0  0
    5.2026    0.2753   -2.8077 F   0  0  0  0  0  0  0  0  0  0  0  0
    7.0521    1.3815   -3.0704 F   0  0  0  0  0  0  0  0  0  0  0  0
    0.0519   -2.5361    3.3747 H   0  0  0  0  0  0  0  0  0  0  0  0
   -1.8397   -4.0694    3.0269 H   0  0  0  0  0  0  0  0  0  0  0  0
   -2.9008   -1.9657   -0.5580 H   0  0  0  0  0  0  0  0  0  0  0  0
   -2.6087    0.9815    0.4788 H   0  0  0  0  0  0  0  0  0  0  0  0
   -1.0003    1.4823    1.0301 H   0  0  0  0  0  0  0  0  0  0  0  0
   -0.5243    2.4795   -1.1959 H   0  0  0  0  0  0  0  0  0  0  0  0
   -1.9426    3.2016   -0.4328 H   0  0  0  0  0  0  0  0  0  0  0  0
   -3.3300   -0.0052   -1.9003 H   0  0  0  0  0  0  0  0  0  0  0  0
   -2.5320    0.2118   -3.4575 H   0  0  0  0  0  0  0  0  0  0  0  0
   -0.3027    0.1045   -2.3619 H   0  0  0  0  0  0  0  0  0  0  0  0
   -1.2116   -1.3690   -2.1129 H   0  0  0  0  0  0  0  0  0  0  0  0
   -3.8725    3.5538   -1.8086 H   0  0  0  0  0  0  0  0  0  0  0  0
   -4.4582    2.2215   -2.8902 H   0  0  0  0  0  0  0  0  0  0  0  0
   -1.7957    3.7762   -3.2022 H   0  0  0  0  0  0  0  0  0  0  0  0
   -2.3877    2.4534   -4.2926 H   0  0  0  0  0  0  0  0  0  0  0  0
   -3.4144   -4.9687    1.2350 H   0  0  0  0  0  0  0  0  0  0  0  0
   -5.1526   -1.5971    0.2887 H   0  0  0  0  0  0  0  0  0  0  0  0
   -6.7383   -2.1309    0.8151 H   0  0  0  0  0  0  0  0  0  0  0  0
   -6.7008   -4.0539   -0.7403 H   0  0  0  0  0  0  0  0  0  0  0  0
   -5.0468   -3.6566   -1.2495 H   0  0  0  0  0  0  0  0  0  0  0  0
   -6.6992   -2.8696   -2.6444 H   0  0  0  0  0  0  0  0  0  0  0  0
    2.2655    1.5427    4.9930 H   0  0  0  0  0  0  0  0  0  0  0  0
    4.4100    2.7775    4.7191 H   0  0  0  0  0  0  0  0  0  0  0  0
    5.6146    2.6946    2.5748 H   0  0  0  0  0  0  0  0  0  0  0  0
    3.8679    3.0562   -0.4154 H   0  0  0  0  0  0  0  0  0  0  0  0
    3.5232    1.4778   -1.1433 H   0  0  0  0  0  0  0  0  0  0  0  0
    6.0832    3.1317   -1.4524 H   0  0  0  0  0  0  0  0  0  0  0  0
    4.8681    2.8148   -2.6904 H   0  0  0  0  0  0  0  0  0  0  0  0
    7.4981    0.9770   -0.5697 H   0  0  0  0  0  0  0  0  0  0  0  0
    7.0929   -0.5764   -1.2992 H   0  0  0  0  0  0  0  0  0  0  0  0
    6.0678   -0.2867    0.9596 H   0  0  0  0  0  0  0  0  0  0  0  0
    4.8553   -0.5513   -0.3051 H   0  0  0  0  0  0  0  0  0  0  0  0
  1  2  2  0
  2  3  1  0
  3  4  2  0
  4  5  1  0
  5  6  2  0
  6  7  1  0
  7  8  1  0
  8  9  1  0
  9 10  1  0
 10 11  1  0
 11 12  1  0
 10 13  1  0
 13 14  1  0
  4 15  1  0
 15 16  1  0
 16 17  1  0
 17 18  1  0
 18 19  1  0
 16 20  2  0
 16 21  2  0
  1 22  1  0
 22 23  1  0
 23 24  1  0
 24 25  2  0
 25 26  1  0
 25 27  1  0
 27 28  2  0
 28 29  1  0
 29 30  2  0
 30 31  1  0
 31 32  1  0
 32 33  1  0
 33 34  1  0
 34 35  1  0
 35 36  1  0
 34 37  1  0
 34 38  1  0
  6  1  1  0
 12  7  1  0
 26 22  2  0
 36 31  1  0
 14 10  1  0
 30 24  1  0
  2 39  1  0
  3 40  1  0
  5 41  1  0
  8 42  1  0
  8 43  1  0
  9 44  1  0
  9 45  1  0
 11 46  1  0
 11 47  1  0
 12 48  1  0
 12 49  1  0
 13 50  1  0
 13 51  1  0
 14 52  1  0
 14 53  1  0
 15 54  1  0
 17 55  1  0
 17 56  1  0
 18 57  1  0
 18 58  1  0
 19 59  1  0
 27 60  1  0
 28 61  1  0
 29 62  1  0
 32 63  1  0
 32 64  1  0
 33 65  1  0
 33 66  1  0
 35 67  1  0
 35 68  1  0
 36 69  1  0
 36 70  1  0
M  END
$$$$
