agan8
     RDKit          3D

 67 71  0  0  0  0  0  0  0  0999 V2000
   -0.6229   -0.4682   -1.6721 C   0  0  0  0  0  0  0  0  0  0  0  0
   -1.1065   -1.6865   -2.1986 C   0  0  0  0  0  0  0  0  0  0  0  0
   -2.4709   -1.9298   -2.3395 C   0  0  0  0  0  0  0  0  0  0  0  0
   -3.3807   -0.9538   -1.9589 C   0  0  0  0  0  0  0  0  0  0  0  0
   -2.9257    0.2614   -1.4433 C   0  0  0  0  0  0  0  0  0  0  0  0
   -1.5528    0.5326   -1.2658 C   0  0  0  0  0  0  0  0  0  0  0  0
   -1.1334    1.7492   -0.7035 N   0  0  0  0  0  0  0  0  0  0  0  0
   -0.3192    1.6574    0.5286 C   0  0  0  0  0  0  0  0  0  0  0  0
   -0.7877    2.6482    1.6021 C   0  0  0  0  0  0  0  0  0  0  0  0
   -0.8057    4.0707    1.0739 C   0  0  0  0  0  0  0  0  0  0  0  0
   -1.2010    4.1889   -0.3887 C   0  0  0  0  0  0  0  0  0  0  0  0
   -1.9742    2.9485   -0.8523 C   0  0  0  0  0  0  0  0  0  0  0  0
   -1.2231    5.1700    2.0305 C   0  0  0  0  0  0  0  0  0  0  0  0
    0.2111    5.0599    1.6085 C   0  0  0  0  0  0  0  0  0  0  0  0
   -4.7705   -1.2245   -2.0961 N   0  0  0  0  0  0  0  0  0  0  0  0
   -5.7762   -1.2654   -0.7483 S   0  0  0  0  0  0  0  0  0  0  0  0
   -5.1563   -2.6546    0.1854 C   0  0  0  0  0  0  0  0  0  0  0  0
   -4.1334   -2.2470    1.2209 C   0  0  0  0  0  0  0  0  0  0  0  0
   -3.6391   -3.4190    1.8668 O   0  0  0  0  0  0  0  0  0  0  0  0
   -7.0740   -1.6473   -1.2673 O   0  0  0  0  0  0  0  0  0  0  0  0
   -5.6193   -0.0530    0.0246 O   0  0  0  0  0  0  0  0  0  0  0  0
    0.8411   -0.2718   -1.6411 C   0  0  0  0  0  0  0  0  0  0  0  0
    1.6731   -1.1200   -0.8965 C   0  0  0  0  0  0  0  0  0  0  0  0
    3.0567   -0.9277   -0.8853 C   0  0  0  0  0  0  0  0  0  0  0  0
    3.6261    0.0601   -1.6058 N   0  0  0  0  0  0  0  0  0  0  0  0
    2.8207    0.8727   -2.3236 C   0  0  0  0  0  0  0  0  0  0  0  0
    1.4459    0.7495   -2.3729 C   0  0  0  0  0  0  0  0  0  0  0  0
    3.8650   -1.8057   -0.1208 N   0  0  0  0  0  0  0  0  0  0  0  0
    3.6463   -1.6071    1.3216 C   0  0  0  0  0  0  0  0  0  0  0  0
    4.3792   -2.6963    2.0884 C   0  0  0  0  0  0  0  0  0  0  0  0
    5.8397   -2.7070    1.6940 C   0  0  0  0  0  0  0  0  0  0  0  0
    6.0580   -2.8205    0.2019 C   0  0  0  0  0  0  0  0  0  0  0  0
    5.2842   -1.7227   -0.5101 C   0  0  0  0  0  0  0  0  0  0  0  0
    6.4628   -3.7403    2.3191 F   0  0  0  0  0  0  0  0  0  0  0  0
    6.4366   -1.5757    2.1552 F   0  0  0  0  0  0  0  0  0  0  0  0
   -0.4035   -2.4504   -2.5293 H   0  0  0  0  0  0  0  0  0  0  0  0
   -2.8010   -2.8786   -2.7520 H   0  0  0  0  0  0  0  0  0  0  0  0
   -3.6662    1.0038   -1.1612 H   0  0  0  0  0  0  0  0  0  0  0  0
   -0.3508    0.6493    0.9607 H   0  0  0  0  0  0  0  0  0  0  0  0
    0.7232    1.8832    0.2760 H   0  0  0  0  0  0  0  0  0  0  0  0
   -0.1365    2.5644    2.4802 H   0  0  0  0  0  0  0  0  0  0  0  0
   -1.7998    2.3795    1.9305 H   0  0  0  0  0  0  0  0  0  0  0  0
   -0.2935    4.2992   -0.9959 H   0  0  0  0  0  0  0  0  0  0  0  0
   -1.8152    5.0813   -0.5545 H   0  0  0  0  0  0  0  0  0  0  0  0
   -2.2536    3.0813   -1.9044 H   0  0  0  0  0  0  0  0  0  0  0  0
   -2.8926    2.8557   -0.2596 H   0  0  0  0  0  0  0  0  0  0  0  0
   -1.7992    6.0070    1.6512 H   0  0  0  0  0  0  0  0  0  0  0  0
   -1.4721    4.9029    3.0521 H   0  0  0  0  0  0  0  0  0  0  0  0
    0.6003    5.8187    0.9377 H   0  0  0  0  0  0  0  0  0  0  0  0
    0.9328    4.7246    2.3452 H   0  0  0  0  0  0  0  0  0  0  0  0
   -5.0522   -1.8909   -2.8151 H   0  0  0  0  0  0  0  0  0  0  0  0
   -6.0188   -3.1126    0.6836 H   0  0  0  0  0  0  0  0  0  0  0  0
   -4.7733   -3.4077   -0.5104 H   0  0  0  0  0  0  0  0  0  0  0  0
   -3.2830   -1.7242    0.7784 H   0  0  0  0  0  0  0  0  0  0  0  0
   -4.5807   -1.5990    1.9815 H   0  0  0  0  0  0  0  0  0  0  0  0
   -3.0328   -3.1225    2.5689 H   0  0  0  0  0  0  0  0  0  0  0  0
    1.2436   -1.9419   -0.3324 H   0  0  0  0  0  0  0  0  0  0  0  0
    3.3301    1.6549   -2.8786 H   0  0  0  0  0  0  0  0  0  0  0  0
    0.8545    1.4398   -2.9658 H   0  0  0  0  0  0  0  0  0  0  0  0
    2.5833   -1.6702    1.5830 H   0  0  0  0  0  0  0  0  0  0  0  0
    4.0029   -0.6158    1.6323 H   0  0  0  0  0  0  0  0  0  0  0  0
    4.2828   -2.5214    3.1656 H   0  0  0  0  0  0  0  0  0  0  0  0
    3.9333   -3.6766    1.8806 H   0  0  0  0  0  0  0  0  0  0  0  0
    5.7316   -3.8081   -0.1459 H   0  0  0  0  0  0  0  0  0  0  0  0
    7.1252   -2.7342   -0.0298 H   0  0  0  0  0  0  0  0  0  0  0  0
    5.3975   -1.8741   -1.5914 H   0  0  0  0  0  0  0  0  0  0  0  0
    5.7095   -0.7426   -0.2548 H   0  0  0  0  0  0  0  0  0  0  0  0
  1  2  2  0
  2  3  1  0
  3  4  2  0
  4  5  1  0
  5  6  2  0
  6  7  1  0
  7  8  1  0
  8  9  1  0
  9 10  1  0
 10 11  1  0
 11 12  1  0
 10 13  1  0
 13 14  1  0
  4 15  1  0
 15 16  1  0
 16 17  1  0
 17 18  1  0
 18 19  1  0
 16 20  2  0
 16 21  2  0
  1 22  1  0
 22 23  2  0
 23 24  1  0
 24 25  2  0
 25 26  1  0
 26 27  2  0
 24 28  1  0
 28 29  1  0
 29 30  1  0
 30 31  1  0
 31 32  1  0
 32 33  1  0
 31 34  1  0
 31 35  1  0
  6  1  1  0
 12  7  1  0
 27 22  1  0
 33 28  1  0
 14 10  1  0
  2 36  1  0
  3 37  1  0
  5 38  1  0
  8 39  1  0
  8 40  1  0
  9 41  1  0
  9 42  1  0
 11 43  1  0
 11 44  1  0
 12 45  1  0
 12 46  1  0
 13 47  1  0
 13 48  1  0
 14 49  1  0
 14 50  1  0
 15 51  1  0
 17 52  1  0
 17 53  1  0
 18 54  1  0
 18 55  1  0
 19 56  1  0
 23 57  1  0
 26 58  1  0
 27 59  1  0
 29 60  1  0
 29 61  1  0
 30 62  1  0
 30 63  1  0
 32 64  1  0
 32 65  1  0
 33 66  1  0
 33 67  1  0
M  END
$$$$
