agan7
     RDKit          3D

 74 78  0  0  0  0  0  0  0  0999 V2000
   -1.2471    1.3386   -0.0947 C   0  0  0  0  0  0  0  0  0  0  0  0
   -1.1100    2.6868    0.2802 C   0  0  0  0  0  0  0  0  0  0  0  0
   -2.0374    3.2804    1.1340 C   0  0  0  0  0  0  0  0  0  0  0  0
   -3.1139    2.5390    1.6056 C   0  0  0  0  0  0  0  0  0  0  0  0
   -3.2478    1.1954    1.2396 C   0  0  0  0  0  0  0  0  0  0  0  0
   -2.3174    0.5590    0.3861 C   0  0  0  0  0  0  0  0  0  0  0  0
   -2.5746   -0.9080    0.0586 C   0  0  0  0  0  0  0  0  0  0  0  0
   -3.2399   -1.0903   -1.3183 C   0  0  0  0  0  0  0  0  0  0  0  0
   -3.6188   -2.5528   -1.5613 C   0  0  0  0  0  0  0  0  0  0  0  0
   -2.4258   -3.4587   -1.3530 C   0  0  0  0  0  0  0  0  0  0  0  0
   -1.7742   -3.3061    0.0032 C   0  0  0  0  0  0  0  0  0  0  0  0
   -1.3665   -1.8488    0.2312 C   0  0  0  0  0  0  0  0  0  0  0  0
   -2.4538   -4.8327   -1.9825 C   0  0  0  0  0  0  0  0  0  0  0  0
   -1.5453   -3.7737   -2.5423 C   0  0  0  0  0  0  0  0  0  0  0  0
   -4.0858    3.1303    2.4708 N   0  0  0  0  0  0  0  0  0  0  0  0
   -5.0834    4.3498    1.8377 S   0  0  0  0  0  0  0  0  0  0  0  0
   -6.2713    3.4060    0.8942 C   0  0  0  0  0  0  0  0  0  0  0  0
   -7.1914    2.5992    1.7875 C   0  0  0  0  0  0  0  0  0  0  0  0
   -6.4847    1.5261    2.4085 O   0  0  0  0  0  0  0  0  0  0  0  0
   -5.7838    4.9429    2.9586 O   0  0  0  0  0  0  0  0  0  0  0  0
   -4.3335    5.1804    0.9200 O   0  0  0  0  0  0  0  0  0  0  0  0
   -0.2126    0.8214   -1.0191 C   0  0  0  0  0  0  0  0  0  0  0  0
    1.0230    0.6954   -0.4319 N   0  0  0  0  0  0  0  0  0  0  0  0
    2.2019    0.2124   -1.0063 C   0  0  0  0  0  0  0  0  0  0  0  0
    2.2993   -0.2137   -2.3065 C   0  0  0  0  0  0  0  0  0  0  0  0
    3.5363   -0.6695   -2.6955 C   0  0  0  0  0  0  0  0  0  0  0  0
    4.5903   -0.6967   -1.8568 N   0  0  0  0  0  0  0  0  0  0  0  0
    4.4226   -0.2587   -0.5997 C   0  0  0  0  0  0  0  0  0  0  0  0
    3.2412    0.1962   -0.1546 N   0  0  0  0  0  0  0  0  0  0  0  0
    5.5096   -0.3096    0.2898 N   0  0  0  0  0  0  0  0  0  0  0  0
    6.8078   -0.3859   -0.3880 C   0  0  0  0  0  0  0  0  0  0  0  0
    7.9062   -0.6662    0.6243 C   0  0  0  0  0  0  0  0  0  0  0  0
    7.8441    0.3439    1.7451 C   0  0  0  0  0  0  0  0  0  0  0  0
    6.4914    0.3956    2.4148 C   0  0  0  0  0  0  0  0  0  0  0  0
    5.4108    0.6638    1.3804 C   0  0  0  0  0  0  0  0  0  0  0  0
    8.7914    0.0446    2.6719 F   0  0  0  0  0  0  0  0  0  0  0  0
    8.1615    1.5755    1.2667 F   0  0  0  0  0  0  0  0  0  0  0  0
    3.7542   -1.1652   -4.0928 C   0  0  0  0  0  0  0  0  0  0  0  0
   -0.5175    0.5733   -2.1762 O   0  0  0  0  0  0  0  0  0  0  0  0
   -0.2887    3.2869   -0.1075 H   0  0  0  0  0  0  0  0  0  0  0  0
   -1.9179    4.3239    1.4165 H   0  0  0  0  0  0  0  0  0  0  0  0
   -4.0955    0.6286    1.6210 H   0  0  0  0  0  0  0  0  0  0  0  0
   -3.3091   -1.2627    0.7984 H   0  0  0  0  0  0  0  0  0  0  0  0
   -4.1409   -0.4687   -1.3908 H   0  0  0  0  0  0  0  0  0  0  0  0
   -2.5687   -0.7620   -2.1177 H   0  0  0  0  0  0  0  0  0  0  0  0
   -4.0251   -2.6575   -2.5746 H   0  0  0  0  0  0  0  0  0  0  0  0
   -4.4165   -2.8482   -0.8686 H   0  0  0  0  0  0  0  0  0  0  0  0
   -0.8895   -3.9479    0.0929 H   0  0  0  0  0  0  0  0  0  0  0  0
   -2.4786   -3.6247    0.7812 H   0  0  0  0  0  0  0  0  0  0  0  0
   -0.9393   -1.7385    1.2349 H   0  0  0  0  0  0  0  0  0  0  0  0
   -0.5750   -1.6122   -0.4840 H   0  0  0  0  0  0  0  0  0  0  0  0
   -1.9975   -5.6598   -1.4497 H   0  0  0  0  0  0  0  0  0  0  0  0
   -3.3184   -5.1192   -2.5712 H   0  0  0  0  0  0  0  0  0  0  0  0
   -1.7977   -3.3406   -3.5042 H   0  0  0  0  0  0  0  0  0  0  0  0
   -0.4777   -3.8829   -2.3847 H   0  0  0  0  0  0  0  0  0  0  0  0
   -4.6675    2.4526    2.9771 H   0  0  0  0  0  0  0  0  0  0  0  0
   -6.8527    4.1375    0.3234 H   0  0  0  0  0  0  0  0  0  0  0  0
   -5.7172    2.7783    0.1908 H   0  0  0  0  0  0  0  0  0  0  0  0
   -7.9907    2.1591    1.1822 H   0  0  0  0  0  0  0  0  0  0  0  0
   -7.6518    3.2109    2.5689 H   0  0  0  0  0  0  0  0  0  0  0  0
   -7.1467    1.0173    2.9157 H   0  0  0  0  0  0  0  0  0  0  0  0
    1.1355    0.9348    0.5445 H   0  0  0  0  0  0  0  0  0  0  0  0
    1.4708   -0.2065   -2.9994 H   0  0  0  0  0  0  0  0  0  0  0  0
    7.0158    0.5521   -0.9199 H   0  0  0  0  0  0  0  0  0  0  0  0
    6.8335   -1.2021   -1.1209 H   0  0  0  0  0  0  0  0  0  0  0  0
    8.8842   -0.6227    0.1323 H   0  0  0  0  0  0  0  0  0  0  0  0
    7.7993   -1.6782    1.0336 H   0  0  0  0  0  0  0  0  0  0  0  0
    6.2990   -0.5527    2.9313 H   0  0  0  0  0  0  0  0  0  0  0  0
    6.4789    1.1824    3.1770 H   0  0  0  0  0  0  0  0  0  0  0  0
    5.5082    1.6851    0.9888 H   0  0  0  0  0  0  0  0  0  0  0  0
    4.4468    0.5942    1.8996 H   0  0  0  0  0  0  0  0  0  0  0  0
    3.1026   -2.0205   -4.2970 H   0  0  0  0  0  0  0  0  0  0  0  0
    3.5415   -0.3702   -4.8143 H   0  0  0  0  0  0  0  0  0  0  0  0
    4.7914   -1.4855   -4.2354 H   0  0  0  0  0  0  0  0  0  0  0  0
  1  2  2  0
  2  3  1  0
  3  4  2  0
  4  5  1  0
  5  6  2  0
  6  7  1  0
  7  8  1  0
  8  9  1  0
  9 10  1  0
 10 11  1  0
 11 12  1  0
 10 13  1  0
 13 14  1  0
  4 15  1  0
 15 16  1  0
 16 17  1  0
 17 18  1  0
 18 19  1  0
 16 20  2  0
 16 21  2  0
  1 22  1  0
 22 23  1  0
 23 24  1  0
 24 25  2  0
 25 26  1  0
 26 27  2  0
 27 28  1  0
 28 29  2  0
 28 30  1  0
 30 31  1  0
 31 32  1  0
 32 33  1  0
 33 34  1  0
 34 35  1  0
 33 36  1  0
 33 37  1  0
 26 38  1  0
 22 39  2  0
  6  1  1  0
 12  7  1  0
 29 24  1  0
 35 30  1  0
 14 10  1  0
  2 40  1  0
  3 41  1  0
  5 42  1  0
  7 43  1  0
  8 44  1  0
  8 45  1  0
  9 46  1  0
  9 47  1  0
 11 48  1  0
 11 49  1  0
 12 50  1  0
 12 51  1  0
 13 52  1  0
 13 53  1  0
 14 54  1  0
 14 55  1  0
 15 56  1  0
 17 57  1  0
 17 58  1  0
 18 59  1  0
 18 60  1  0
 19 61  1  0
 23 62  1  0
 25 63  1  0
 31 64  1  0
 31 65  1  0
 32 66  1  0
 32 67  1  0
 34 68  1  0
 34 69  1  0
 35 70  1  0
 35 71  1  0
 38 72  1  0
 38 73  1  0
 38 74  1  0
M  END
$$$$
