REMARK  Name = agan10
REMARK  8 active torsions:
REMARK  status: ('A' for Active; 'I' for Inactive)
REMARK    1  A    between atoms: C1_1  and  C16_22
REMARK    2  A    between atoms: C4_4  and  N2_15
REMARK    3  A    between atoms: C6_6  and  N1_7
REMARK    4  A    between atoms: N2_15  and  S1_16
REMARK    5  A    between atoms: S1_16  and  C14_17
REMARK    6  A    between atoms: C14_17  and  C15_18
REMARK    7  A    between atoms: C15_18  and  O1_19
REMARK    8  A    between atoms: C22_30  and  N4_31
REMARK                            x       y       z     vdW  Elec       q    Type
REMARK                         _______ _______ _______ _____ _____    ______ ____
ROOT
ATOM      1  C1  UNL A   1      -0.955  -1.397  -0.027  0.00  0.00    +0.028 A 
ATOM      2  C2  UNL A   1      -1.436  -2.604   0.527  0.00  0.00    +0.014 A 
ATOM      3  C3  UNL A   1      -2.599  -2.639   1.298  0.00  0.00    +0.025 A 
ATOM      4  C4  UNL A   1      -3.293  -1.462   1.539  0.00  0.00    +0.050 A 
ATOM      5  C5  UNL A   1      -2.833  -0.260   1.000  0.00  0.00    +0.048 A 
ATOM      6  C6  UNL A   1      -1.663  -0.196   0.212  0.00  0.00    +0.041 A 
ENDROOT
BRANCH   1   7
ATOM      7  C16 UNL A   1       0.295  -1.461  -0.791  0.00  0.00    +0.111 A 
ATOM      8  N3  UNL A   1       1.443  -0.957  -0.402  0.00  0.00    -0.237 NA
ATOM      9  C17 UNL A   1       2.435  -1.179  -1.356  0.00  0.00    +0.100 A 
ATOM     10  C18 UNL A   1       1.997  -1.888  -2.479  0.00  0.00    +0.041 A 
ATOM     11  S2  UNL A   1       0.326  -2.273  -2.303  0.00  0.00    -0.067 S 
ATOM     12  C19 UNL A   1       2.844  -2.201  -3.553  0.00  0.00    +0.017 A 
ATOM     13  C20 UNL A   1       4.169  -1.781  -3.487  0.00  0.00    +0.003 A 
ATOM     14  C21 UNL A   1       4.629  -1.069  -2.383  0.00  0.00    +0.025 A 
ATOM     15  C22 UNL A   1       3.795  -0.739  -1.288  0.00  0.00    +0.057 A 
BRANCH  15  16
ATOM     16  N4  UNL A   1       4.403  -0.004  -0.221  0.00  0.00    -0.328 N 
ATOM     17  C23 UNL A   1       3.754  -0.168   1.091  0.00  0.00    +0.111 C 
ATOM     18  C24 UNL A   1       4.657   0.434   2.156  0.00  0.00    +0.094 C 
ATOM     19  C25 UNL A   1       4.927   1.883   1.813  0.00  0.00    +0.252 C 
ATOM     20  C26 UNL A   1       5.491   2.080   0.422  0.00  0.00    +0.094 C 
ATOM     21  C27 UNL A   1       4.588   1.409  -0.601  0.00  0.00    +0.111 C 
ATOM     22  F1  UNL A   1       3.776   2.599   1.934  0.00  0.00    -0.206 F 
ATOM     23  F2  UNL A   1       5.790   2.407   2.723  0.00  0.00    -0.206 F 
ENDBRANCH  15  16
ENDBRANCH   1   7
BRANCH   6  24
ATOM     24  N1  UNL A   1      -1.330   1.091  -0.248  0.00  0.00    -0.329 N 
ATOM     25  C7  UNL A   1      -1.092   1.253  -1.692  0.00  0.00    +0.105 C 
ATOM     26  C8  UNL A   1      -1.154   2.746  -2.045  0.00  0.00    +0.026 C 
ATOM     27  C9  UNL A   1      -0.178   3.537  -1.192  0.00  0.00    -0.026 C 
ATOM     28  C10 UNL A   1      -0.338   3.274   0.294  0.00  0.00    +0.026 C 
ATOM     29  C11 UNL A   1      -0.320   1.767   0.592  0.00  0.00    +0.105 C 
ATOM     30  C12 UNL A   1       1.204   3.828  -1.736  0.00  0.00    +0.007 C 
ATOM     31  C13 UNL A   1       0.191   4.934  -1.638  0.00  0.00    +0.007 C 
ENDBRANCH   6  24
BRANCH   4  32
ATOM     32  N2  UNL A   1      -4.503  -1.477   2.296  0.00  0.00    -0.221 N 
ATOM     33  H16 UNL A   1      -4.734  -0.587   2.745  0.00  0.00    +0.173 HD
BRANCH  32  34
ATOM     34  S1  UNL A   1      -5.891  -2.074   1.531  0.00  0.00    +0.045 S 
ATOM     35  O2  UNL A   1      -6.962  -1.185   1.931  0.00  0.00    -0.155 OA
ATOM     36  O3  UNL A   1      -5.624  -2.353   0.138  0.00  0.00    -0.155 OA
BRANCH  34  37
ATOM     37  C14 UNL A   1      -6.116  -3.613   2.394  0.00  0.00    +0.216 C 
BRANCH  37  38
ATOM     38  C15 UNL A   1      -7.373  -4.302   1.907  0.00  0.00    +0.180 C 
BRANCH  38  39
ATOM     39  O1  UNL A   1      -7.527  -5.536   2.603  0.00  0.00    -0.393 OA
ATOM     40  H21 UNL A   1      -8.343  -5.951   2.272  0.00  0.00    +0.209 HD
ENDBRANCH  38  39
ENDBRANCH  37  38
ENDBRANCH  34  37
ENDBRANCH  32  34
ENDBRANCH   4  32
TORSDOF 8
