REMARK  Name = agan9
REMARK  8 active torsions:
REMARK  status: ('A' for Active; 'I' for Inactive)
REMARK    1  A    between atoms: C4_4  and  N2_15
REMARK    2  A    between atoms: C6_6  and  N1_7
REMARK    3  A    between atoms: N2_15  and  S1_16
REMARK    4  A    between atoms: S1_16  and  C14_17
REMARK    5  A    between atoms: C14_17  and  C15_18
REMARK    6  A    between atoms: C15_18  and  O1_19
REMARK    7  A    between atoms: N5_26  and  C18_27
REMARK    8  A    between atoms: C22_31  and  C24_33
REMARK                            x       y       z     vdW  Elec       q    Type
REMARK                         _______ _______ _______ _____ _____    ______ ____
ROOT
ATOM      1  C1  UNL A   1       0.998  -1.455  -1.533  0.00  0.00    +0.061 A 
ATOM      2  C2  UNL A   1       2.137  -1.571  -2.347  0.00  0.00    +0.080 A 
ATOM      3  C3  UNL A   1       3.149  -0.628  -2.256  0.00  0.00    +0.053 A 
ATOM      4  C4  UNL A   1       3.095   0.434  -1.357  0.00  0.00    +0.051 A 
ATOM      5  C5  UNL A   1       1.959   0.588  -0.575  0.00  0.00    +0.048 A 
ATOM      6  C6  UNL A   1       0.911  -0.344  -0.617  0.00  0.00    +0.044 A 
ATOM      7  N3  UNL A   1       2.321  -2.556  -3.229  0.00  0.00    -0.235 NA
ATOM      8  C16 UNL A   1       1.357  -3.474  -3.313  0.00  0.00    +0.224 A 
ATOM      9  N4  UNL A   1       0.231  -3.494  -2.604  0.00  0.00    -0.220 NA
ATOM     10  C17 UNL A   1       0.047  -2.499  -1.715  0.00  0.00    +0.136 A 
ATOM     11  N5  UNL A   1      -1.151  -2.459  -0.962  0.00  0.00    -0.299 N 
ATOM     12  H22 UNL A   1      -1.019  -1.845  -0.158  0.00  0.00    +0.154 HD
ENDROOT
BRANCH   6  13
ATOM     13  N1  UNL A   1      -0.220  -0.193   0.214  0.00  0.00    -0.329 N 
ATOM     14  C7  UNL A   1       0.004  -0.139   1.677  0.00  0.00    +0.105 C 
ATOM     15  C8  UNL A   1       0.098   1.280   2.248  0.00  0.00    +0.026 C 
ATOM     16  C9  UNL A   1      -0.995   2.176   1.708  0.00  0.00    -0.026 C 
ATOM     17  C10 UNL A   1      -1.093   2.155   0.198  0.00  0.00    +0.026 C 
ATOM     18  C11 UNL A   1      -1.259   0.723  -0.313  0.00  0.00    +0.105 C 
ATOM     19  C12 UNL A   1      -1.263   3.481   2.422  0.00  0.00    +0.007 C 
ATOM     20  C13 UNL A   1      -2.260   2.360   2.520  0.00  0.00    +0.007 C 
ENDBRANCH   6  13
BRANCH  11  21
ATOM     21  C18 UNL A   1      -2.273  -3.297  -0.878  0.00  0.00    +0.033 A 
ATOM     22  C19 UNL A   1      -2.566  -4.307  -1.796  0.00  0.00    +0.023 A 
ATOM     23  C20 UNL A   1      -3.727  -5.079  -1.677  0.00  0.00    +0.002 A 
ATOM     24  C21 UNL A   1      -4.622  -4.846  -0.637  0.00  0.00    +0.003 A 
ATOM     25  C22 UNL A   1      -4.363  -3.841   0.296  0.00  0.00    -0.049 A 
ATOM     26  C23 UNL A   1      -3.201  -3.066   0.154  0.00  0.00    +0.026 A 
ATOM     27  C24 UNL A   1      -5.340  -3.550   1.395  0.00  0.00    +0.044 C 
ENDBRANCH  11  21
BRANCH   4  28
ATOM     28  N2  UNL A   1       4.149   1.402  -1.407  0.00  0.00    -0.220 N 
ATOM     29  H15 UNL A   1       4.949   1.175  -2.001  0.00  0.00    +0.173 HD
BRANCH  28  30
ATOM     30  S1  UNL A   1       4.657   2.252  -0.047  0.00  0.00    +0.045 S 
ATOM     31  O2  UNL A   1       4.193   1.601   1.158  0.00  0.00    -0.155 OA
ATOM     32  O3  UNL A   1       6.065   2.509  -0.264  0.00  0.00    -0.155 OA
BRANCH  30  33
ATOM     33  C14 UNL A   1       3.795   3.796  -0.253  0.00  0.00    +0.216 C 
BRANCH  33  34
ATOM     34  C15 UNL A   1       4.164   4.747   0.865  0.00  0.00    +0.180 C 
BRANCH  34  35
ATOM     35  O1  UNL A   1       3.440   5.964   0.697  0.00  0.00    -0.393 OA
ATOM     36  H20 UNL A   1       3.717   6.563   1.413  0.00  0.00    +0.209 HD
ENDBRANCH  34  35
ENDBRANCH  33  34
ENDBRANCH  30  33
ENDBRANCH  28  30
ENDBRANCH   4  28
TORSDOF 7
