REMARK  Name = agan2
REMARK  9 active torsions:
REMARK  status: ('A' for Active; 'I' for Inactive)
REMARK    1  A    between atoms: C1_1  and  N4_31
REMARK    2  A    between atoms: C2_2  and  C9_14
REMARK    3  A    between atoms: C5_5  and  N1_7
REMARK    4  A    between atoms: N1_7  and  S1_8
REMARK    5  A    between atoms: S1_8  and  C7_9
REMARK    6  A    between atoms: C7_9  and  C8_10
REMARK    7  A    between atoms: C8_10  and  O1_11
REMARK    8  A    between atoms: N2_15  and  C10_16
REMARK    9  A    between atoms: C14_20  and  N3_22
REMARK                            x       y       z     vdW  Elec       q    Type
REMARK                         _______ _______ _______ _____ _____    ______ ____
ROOT
ATOM      1  C1  UNL A   1      -2.015   0.537   0.718  0.00  0.00    +0.044 A 
ATOM      2  C2  UNL A   1      -0.936   1.455   0.684  0.00  0.00    +0.058 A 
ATOM      3  C3  UNL A   1      -1.203   2.835   0.765  0.00  0.00    +0.017 A 
ATOM      4  C4  UNL A   1      -2.509   3.315   0.872  0.00  0.00    +0.025 A 
ATOM      5  C5  UNL A   1      -3.574   2.422   0.888  0.00  0.00    +0.050 A 
ATOM      6  C6  UNL A   1      -3.326   1.050   0.823  0.00  0.00    +0.048 A 
ENDROOT
BRANCH   1   7
ATOM      7  N4  UNL A   1      -1.803  -0.865   0.600  0.00  0.00    -0.329 N 
ATOM      8  C21 UNL A   1      -2.021  -1.302  -0.807  0.00  0.00    +0.105 C 
ATOM      9  C22 UNL A   1      -1.931  -2.828  -0.906  0.00  0.00    +0.026 C 
ATOM     10  C23 UNL A   1      -2.996  -3.494  -0.051  0.00  0.00    -0.026 C 
ATOM     11  C24 UNL A   1      -3.559  -2.614   1.050  0.00  0.00    +0.026 C 
ATOM     12  C25 UNL A   1      -2.480  -1.696   1.634  0.00  0.00    +0.105 C 
ATOM     13  C26 UNL A   1      -2.860  -4.982   0.204  0.00  0.00    +0.007 C 
ATOM     14  C27 UNL A   1      -3.939  -4.482  -0.708  0.00  0.00    +0.007 C 
ENDBRANCH   1   7
BRANCH   2  15
ATOM     15  C9  UNL A   1       0.519   1.066   0.590  0.00  0.00    +0.250 C 
ATOM     16  N2  UNL A   1       0.790  -0.275   0.749  0.00  0.00    -0.281 N 
ATOM     17  O4  UNL A   1       1.350   1.949   0.397  0.00  0.00    -0.270 OA
ATOM     18  H10 UNL A   1      -0.038  -0.858   0.874  0.00  0.00    +0.155 HD
BRANCH  16  19
ATOM     19  C10 UNL A   1       2.032  -0.937   0.727  0.00  0.00    +0.035 A 
ATOM     20  C11 UNL A   1       2.014  -2.322   0.912  0.00  0.00    +0.023 A 
ATOM     21  C12 UNL A   1       3.201  -3.050   0.905  0.00  0.00    +0.004 A 
ATOM     22  C13 UNL A   1       4.415  -2.392   0.709  0.00  0.00    +0.023 A 
ATOM     23  C14 UNL A   1       4.473  -1.003   0.514  0.00  0.00    +0.031 A 
ATOM     24  C15 UNL A   1       3.260  -0.292   0.532  0.00  0.00    +0.046 A 
BRANCH  23  25
ATOM     25  N3  UNL A   1       5.733  -0.396   0.327  0.00  0.00    -0.330 N 
ATOM     26  C16 UNL A   1       6.349  -0.774  -0.959  0.00  0.00    +0.111 C 
ATOM     27  C17 UNL A   1       7.826  -0.414  -0.927  0.00  0.00    +0.094 C 
ATOM     28  C18 UNL A   1       7.991   1.047  -0.574  0.00  0.00    +0.252 C 
ATOM     29  C19 UNL A   1       7.286   1.442   0.705  0.00  0.00    +0.094 C 
ATOM     30  C20 UNL A   1       5.822   1.044   0.622  0.00  0.00    +0.111 C 
ATOM     31  F1  UNL A   1       9.315   1.332  -0.462  0.00  0.00    -0.206 F 
ATOM     32  F2  UNL A   1       7.529   1.812  -1.599  0.00  0.00    -0.206 F 
ENDBRANCH  23  25
ENDBRANCH  16  19
ENDBRANCH   2  15
BRANCH   5  33
ATOM     33  N1  UNL A   1      -4.896   2.942   0.984  0.00  0.00    -0.221 N 
ATOM     34  H4  UNL A   1      -5.017   3.867   1.396  0.00  0.00    +0.173 HD
BRANCH  33  35
ATOM     35  S1  UNL A   1      -6.059   2.564  -0.169  0.00  0.00    +0.045 S 
ATOM     36  O2  UNL A   1      -7.211   3.377   0.162  0.00  0.00    -0.155 OA
ATOM     37  O3  UNL A   1      -6.178   1.127  -0.278  0.00  0.00    -0.155 OA
BRANCH  35  38
ATOM     38  C7  UNL A   1      -5.363   3.190  -1.688  0.00  0.00    +0.216 C 
BRANCH  38  39
ATOM     39  C8  UNL A   1      -5.292   4.700  -1.699  0.00  0.00    +0.180 C 
BRANCH  39  40
ATOM     40  O1  UNL A   1      -4.632   5.124  -2.888  0.00  0.00    -0.393 OA
ATOM     41  H9  UNL A   1      -4.677   6.097  -2.917  0.00  0.00    +0.209 HD
ENDBRANCH  39  40
ENDBRANCH  38  39
ENDBRANCH  35  38
ENDBRANCH  33  35
ENDBRANCH   5  33
TORSDOF 9
