REMARK  Name = agan1
REMARK  8 active torsions:
REMARK  status: ('A' for Active; 'I' for Inactive)
REMARK    1  A    between atoms: C1_1  and  C2_2
REMARK    2  A    between atoms: C11_17  and  C12_19
REMARK    3  A    between atoms: C13_20  and  N6_32
REMARK    4  A    between atoms: C15_22  and  N5_25
REMARK    5  A    between atoms: N5_25  and  S1_26
REMARK    6  A    between atoms: S1_26  and  C18_29
REMARK    7  A    between atoms: C18_29  and  C19_30
REMARK    8  A    between atoms: C19_30  and  O4_31
REMARK                            x       y       z     vdW  Elec       q    Type
REMARK                         _______ _______ _______ _____ _____    ______ ____
ROOT
ATOM      1  C12 UNL A   1      -1.735   0.969   1.914  0.00  0.00    +0.058 A 
ATOM      2  C13 UNL A   1      -2.099   0.676   0.574  0.00  0.00    +0.044 A 
ATOM      3  C14 UNL A   1      -3.381   1.061   0.128  0.00  0.00    +0.048 A 
ATOM      4  C15 UNL A   1      -4.274   1.722   0.973  0.00  0.00    +0.050 A 
ATOM      5  C16 UNL A   1      -3.910   2.024   2.277  0.00  0.00    +0.025 A 
ATOM      6  C17 UNL A   1      -2.652   1.642   2.746  0.00  0.00    +0.017 A 
ENDROOT
BRANCH   1  23
ATOM      7  C1  UNL A   1       4.396  -0.726   4.653  0.00  0.00    +0.066 C 
ATOM      8  C2  UNL A   1       3.658  -0.819   3.352  0.00  0.00    +0.045 A 
ATOM      9  C3  UNL A   1       2.380  -0.324   3.243  0.00  0.00    +0.067 A 
ATOM     10  C4  UNL A   1       1.789  -0.452   2.011  0.00  0.00    +0.131 A 
ATOM     11  N1  UNL A   1       2.414  -1.025   0.966  0.00  0.00    -0.199 NA
ATOM     12  C5  UNL A   1       3.661  -1.488   1.141  0.00  0.00    +0.220 A 
ATOM     13  N2  UNL A   1       4.298  -1.397   2.318  0.00  0.00    -0.220 NA
ATOM     14  N3  UNL A   1       4.336  -2.062   0.049  0.00  0.00    -0.299 N 
ATOM     15  C6  UNL A   1       3.438  -2.527  -1.010  0.00  0.00    +0.114 C 
ATOM     16  C7  UNL A   1       4.239  -2.926  -2.236  0.00  0.00    +0.094 C 
ATOM     17  C8  UNL A   1       5.314  -3.914  -1.850  0.00  0.00    +0.252 C 
ATOM     18  C9  UNL A   1       6.220  -3.399  -0.757  0.00  0.00    +0.094 C 
ATOM     19  C10 UNL A   1       5.395  -2.992   0.453  0.00  0.00    +0.114 C 
ATOM     20  F1  UNL A   1       6.059  -4.217  -2.945  0.00  0.00    -0.206 F 
ATOM     21  F2  UNL A   1       4.738  -5.079  -1.453  0.00  0.00    -0.206 F 
ATOM     22  N4  UNL A   1       0.498  -0.009   1.724  0.00  0.00    -0.266 N 
ATOM     23  C11 UNL A   1      -0.411   0.611   2.542  0.00  0.00    +0.251 C 
ATOM     24  O1  UNL A   1      -0.224   0.883   3.725  0.00  0.00    -0.270 OA
ATOM     25  H13 UNL A   1       0.205  -0.176   0.763  0.00  0.00    +0.157 HD
ENDBRANCH   1  23
BRANCH   2  26
ATOM     26  N6  UNL A   1      -1.192   0.029  -0.312  0.00  0.00    -0.329 N 
ATOM     27  C20 UNL A   1      -1.698  -1.286  -0.783  0.00  0.00    +0.105 C 
ATOM     28  C21 UNL A   1      -0.590  -2.008  -1.560  0.00  0.00    +0.026 C 
ATOM     29  C22 UNL A   1      -0.074  -1.139  -2.691  0.00  0.00    -0.026 C 
ATOM     30  C23 UNL A   1      -0.663  -1.312  -4.074  0.00  0.00    +0.007 C 
ATOM     31  C24 UNL A   1       0.731  -1.798  -3.789  0.00  0.00    +0.007 C 
ATOM     32  C25 UNL A   1       0.333   0.252  -2.239  0.00  0.00    +0.026 C 
ATOM     33  C26 UNL A   1      -0.795   0.917  -1.440  0.00  0.00    +0.105 C 
ENDBRANCH   2  26
BRANCH   4  34
ATOM     34  N5  UNL A   1      -5.543   2.150   0.487  0.00  0.00    -0.221 N 
ATOM     35  H17 UNL A   1      -6.059   1.449  -0.051  0.00  0.00    +0.173 HD
BRANCH  34  36
ATOM     36  S1  UNL A   1      -5.585   3.620  -0.359  0.00  0.00    +0.045 S 
ATOM     37  O2  UNL A   1      -6.730   3.510  -1.240  0.00  0.00    -0.155 OA
ATOM     38  O3  UNL A   1      -4.271   3.926  -0.877  0.00  0.00    -0.155 OA
BRANCH  36  39
ATOM     39  C18 UNL A   1      -6.007   4.764   0.938  0.00  0.00    +0.216 C 
BRANCH  39  40
ATOM     40  C19 UNL A   1      -6.172   6.156   0.370  0.00  0.00    +0.180 C 
BRANCH  40  41
ATOM     41  O4  UNL A   1      -6.549   7.060   1.406  0.00  0.00    -0.393 OA
ATOM     42  H22 UNL A   1      -7.503   6.950   1.566  0.00  0.00    +0.209 HD
ENDBRANCH  40  41
ENDBRANCH  39  40
ENDBRANCH  36  39
ENDBRANCH  34  36
ENDBRANCH   4  34
TORSDOF 7
