agan1
 OpenBabel01042510183D

 42 46  0  0  0  0  0  0  0  0999 V2000
   -1.2390    0.0200  -12.8710 C   0  0  0  0  0  0  0  0  0  0  0  0
   -1.5820    0.0600  -14.2480 C   0  0  0  0  0  0  0  0  0  0  0  0
   -0.5590   -0.1280  -15.2000 C   0  0  0  0  0  3  0  0  0  0  0  0
    0.7620   -0.3570  -14.8090 C   0  0  0  0  0  0  0  0  0  0  0  0
    1.0930   -0.4140  -13.4630 C   0  0  0  0  0  3  0  0  0  0  0  0
    0.1000   -0.2190  -12.5020 C   0  0  0  0  0  3  0  0  0  0  0  0
   -5.7880    0.7830   -7.7060 C   0  0  0  0  0  1  0  0  0  0  0  0
   -5.5210   -0.1190   -8.8720 C   0  0  0  0  0  0  0  0  0  0  0  0
   -4.4390    0.1070   -9.6900 C   0  0  0  0  0  3  0  0  0  0  0  0
   -4.2750   -0.7750  -10.7280 C   0  0  0  0  0  0  0  0  0  0  0  0
   -5.1170   -1.8040  -10.9410 N   0  0  0  0  0  0  0  0  0  0  0  0
   -6.1530   -1.9670  -10.1060 C   0  0  0  0  0  0  0  0  0  0  0  0
   -6.3740   -1.1420   -9.0710 N   0  0  0  0  0  0  0  0  0  0  0  0
   -7.0230   -3.0550  -10.3000 N   0  0  0  0  0  0  0  0  0  0  0  0
   -6.9840   -3.5940  -11.6610 C   0  0  0  0  0  2  0  0  0  0  0  0
   -7.7730   -4.8890  -11.7330 C   0  0  0  0  0  2  0  0  0  0  0  0
   -9.1640   -4.6760  -11.1850 C   0  0  0  0  0  0  0  0  0  0  0  0
   -9.1630   -4.1210   -9.7800 C   0  0  0  0  0  2  0  0  0  0  0  0
   -8.3560   -2.8340   -9.7300 C   0  0  0  0  0  2  0  0  0  0  0  0
   -9.8380   -5.8560  -11.2010 F   0  0  0  0  0  0  0  0  0  0  0  0
   -9.8510   -3.8390  -12.0050 F   0  0  0  0  0  0  0  0  0  0  0  0
   -3.2360   -0.6940  -11.6540 N   0  0  0  0  0  0  0  0  0  0  0  0
   -2.2130    0.2160  -11.7370 C   0  0  0  0  0  0  0  0  0  0  0  0
   -2.0460    1.1600  -10.9690 O   0  0  0  0  0  0  0  0  0  0  0  0
   -3.2530   -1.4240  -12.3640 H   0  0  0  0  0  0  0  0  0  0  0  0
   -2.9280    0.2630  -14.6660 N   0  0  0  0  0  0  0  0  0  0  0  0
   -3.1390    1.6040  -15.2710 C   0  0  0  0  0  2  0  0  0  0  0  0
   -4.6380    1.8250  -15.5060 C   0  0  0  0  0  2  0  0  0  0  0  0
   -5.2210    0.7040  -16.3460 C   0  0  0  0  0  0  0  0  0  0  0  0
   -5.3230    0.8910  -17.8440 C   0  0  0  0  0  2  0  0  0  0  0  0
   -6.5670    0.9260  -16.9990 C   0  0  0  0  0  2  0  0  0  0  0  0
   -4.9060   -0.6770  -15.8010 C   0  0  0  0  0  2  0  0  0  0  0  0
   -3.4010   -0.8360  -15.5530 C   0  0  0  0  0  2  0  0  0  0  0  0
    1.7710   -0.5980  -15.7860 N   0  0  0  0  0  0  0  0  0  0  0  0
    2.6280   -1.0250  -15.4260 H   0  0  0  0  0  0  0  0  0  0  0  0
    2.1940    0.7040  -16.7890 S   0  0  0  0  0  0  0  0  0  0  0  0
    2.2670    1.8480  -15.9030 O   0  0  0  0  0  0  0  0  0  0  0  0
    1.3470    0.7180  -17.9590 O   0  0  0  0  0  0  0  0  0  0  0  0
    3.8580    0.2690  -17.2500 C   0  0  0  0  0  2  0  0  0  0  0  0
    3.9960    0.2670  -18.7560 C   0  0  0  0  0  2  0  0  0  0  0  0
    3.7350    1.5720  -19.2680 O   0  0  0  0  0  0  0  0  0  0  0  0
    2.7700    1.6710  -19.3560 H   0  0  0  0  0  0  0  0  0  0  0  0
  1  6  1  0  0  0  0
  1 23  1  0  0  0  0
  2  1  2  0  0  0  0
  3  4  2  0  0  0  0
  3  2  1  0  0  0  0
  4  5  1  0  0  0  0
  5  6  2  0  0  0  0
  8  7  1  0  0  0  0
  9  8  1  0  0  0  0
 10  9  2  0  0  0  0
 11 10  1  0  0  0  0
 11 12  2  0  0  0  0
 12 13  1  0  0  0  0
 13  8  2  0  0  0  0
 14 12  1  0  0  0  0
 14 19  1  0  0  0  0
 15 14  1  0  0  0  0
 16 15  1  0  0  0  0
 16 17  1  0  0  0  0
 17 18  1  0  0  0  0
 18 19  1  0  0  0  0
 20 17  1  0  0  0  0
 21 17  1  0  0  0  0
 22 10  1  0  0  0  0
 23 22  1  0  0  0  0
 23 24  2  0  0  0  0
 25 22  1  0  0  0  0
 26  2  1  0  0  0  0
 27 26  1  0  0  0  0
 28 27  1  0  0  0  0
 29 32  1  0  0  0  0
 29 28  1  0  0  0  0
 30 31  1  0  0  0  0
 30 29  1  0  0  0  0
 31 29  1  0  0  0  0
 32 33  1  0  0  0  0
 33 26  1  0  0  0  0
 34 35  1  0  0  0  0
 34  4  1  0  0  0  0
 36 37  2  0  0  0  0
 36 34  1  0  0  0  0
 38 36  2  0  0  0  0
 39 36  1  0  0  0  0
 40 39  1  0  0  0  0
 41 40  1  0  0  0  0
 42 41  1  0  0  0  0
M  END
$$$$
